
     RDKit          3D

 53 57  0  0  0  0  0  0  0  0999 V2000
   -5.9124    2.9327    0.5306 C   0  0  0  0  0  0  0  0  0  0  0  0
   -4.9216    2.3424   -0.4282 C   0  0  0  0  0  0  0  0  0  0  0  0
   -5.0434    2.5673   -1.8039 C   0  0  0  0  0  0  0  0  0  0  0  0
   -4.1433    1.9846   -2.6958 C   0  0  0  0  0  0  0  0  0  0  0  0
   -3.1217    1.1612   -2.2209 C   0  0  0  0  0  0  0  0  0  0  0  0
   -3.0010    0.9037   -0.8511 C   0  0  0  0  0  0  0  0  0  0  0  0
   -1.8911    0.0698   -0.3760 C   0  0  0  0  0  0  0  0  0  0  0  0
   -1.9728   -1.0838    0.3060 C   0  0  0  0  0  0  0  0  0  0  0  0
   -3.2419   -1.8329    0.6392 C   0  0  0  0  0  0  0  0  0  0  0  0
   -4.3905   -1.4596    0.5022 O   0  0  0  0  0  0  0  0  0  0  0  0
   -2.8064   -3.0538    1.1271 N   0  0  0  0  0  0  0  0  0  0  0  0
   -3.6527   -4.1300    1.5624 C   0  0  0  0  0  0  0  0  0  0  0  0
   -1.4109   -3.1224    1.1783 C   0  0  0  0  0  0  0  0  0  0  0  0
   -0.7371   -4.1938    1.6134 N   0  0  0  0  0  0  0  0  0  0  0  0
    0.5905   -4.0396    1.5966 C   0  0  0  0  0  0  0  0  0  0  0  0
    1.2564   -2.9326    1.2211 N   0  0  0  0  0  0  0  0  0  0  0  0
    0.5112   -1.8681    0.8286 C   0  0  0  0  0  0  0  0  0  0  0  0
    1.3274   -0.6878    0.5788 C   0  0  0  0  0  0  0  0  0  0  0  0
    1.1733    0.6408    0.9300 C   0  0  0  0  0  0  0  0  0  0  0  0
    2.2885    1.3576    0.4274 C   0  0  0  0  0  0  0  0  0  0  0  0
    3.1490    0.4513   -0.1565 C   0  0  0  0  0  0  0  0  0  0  0  0
    4.3503    0.5915   -0.7904 N   0  0  0  0  0  0  0  0  0  0  0  0
    5.4436   -0.3700   -0.5076 C   0  0  0  0  0  0  0  0  0  0  0  0
    6.2929    0.1277    0.6750 C   0  0  0  0  0  0  0  0  0  0  0  0
    6.8316    1.4375    0.4210 O   0  0  0  0  0  0  0  0  0  0  0  0
    5.7681    2.3784    0.1856 C   0  0  0  0  0  0  0  0  0  0  0  0
    4.8951    1.9525   -1.0064 C   0  0  0  0  0  0  0  0  0  0  0  0
    2.5491   -0.7793   -0.0521 N   0  0  0  0  0  0  0  0  0  0  0  0
   -0.8556   -1.9322    0.7380 C   0  0  0  0  0  0  0  0  0  0  0  0
   -3.8992    1.5040    0.0395 C   0  0  0  0  0  0  0  0  0  0  0  0
   -6.3075    3.8808    0.1507 H   0  0  0  0  0  0  0  0  0  0  0  0
   -6.7446    2.2387    0.6830 H   0  0  0  0  0  0  0  0  0  0  0  0
   -5.4427    3.1415    1.4975 H   0  0  0  0  0  0  0  0  0  0  0  0
   -5.8430    3.1960   -2.1887 H   0  0  0  0  0  0  0  0  0  0  0  0
   -4.2409    2.1680   -3.7624 H   0  0  0  0  0  0  0  0  0  0  0  0
   -2.4279    0.7159   -2.9297 H   0  0  0  0  0  0  0  0  0  0  0  0
   -0.9240    0.4627   -0.6754 H   0  0  0  0  0  0  0  0  0  0  0  0
   -3.4709   -4.3276    2.6230 H   0  0  0  0  0  0  0  0  0  0  0  0
   -3.4319   -5.0263    0.9751 H   0  0  0  0  0  0  0  0  0  0  0  0
   -4.7054   -3.8668    1.4262 H   0  0  0  0  0  0  0  0  0  0  0  0
    1.1891   -4.8836    1.9232 H   0  0  0  0  0  0  0  0  0  0  0  0
    0.3412    1.0620    1.4800 H   0  0  0  0  0  0  0  0  0  0  0  0
    2.4482    2.4231    0.5173 H   0  0  0  0  0  0  0  0  0  0  0  0
    5.0751   -1.3814   -0.3088 H   0  0  0  0  0  0  0  0  0  0  0  0
    6.0749   -0.4312   -1.4028 H   0  0  0  0  0  0  0  0  0  0  0  0
    5.7076    0.1572    1.6017 H   0  0  0  0  0  0  0  0  0  0  0  0
    7.1381   -0.5493    0.8340 H   0  0  0  0  0  0  0  0  0  0  0  0
    6.2289    3.3492   -0.0218 H   0  0  0  0  0  0  0  0  0  0  0  0
    5.1755    2.4788    1.1022 H   0  0  0  0  0  0  0  0  0  0  0  0
    4.1035    2.6860   -1.1955 H   0  0  0  0  0  0  0  0  0  0  0  0
    5.5170    1.9216   -1.9099 H   0  0  0  0  0  0  0  0  0  0  0  0
    2.9292   -1.6413   -0.4120 H   0  0  0  0  0  0  0  0  0  0  0  0
   -3.8148    1.3090    1.1064 H   0  0  0  0  0  0  0  0  0  0  0  0
  1  2  1  0
  2  3  2  0
  3  4  1  0
  4  5  2  0
  5  6  1  0
  6  7  1  0
  7  8  2  3
  8  9  1  0
  9 10  2  0
  9 11  1  0
 11 12  1  0
 11 13  1  0
 13 14  2  0
 14 15  1  0
 15 16  2  0
 16 17  1  0
 17 18  1  0
 18 19  2  0
 19 20  1  0
 20 21  2  0
 21 22  1  0
 22 23  1  0
 23 24  1  0
 24 25  1  0
 25 26  1  0
 26 27  1  0
 21 28  1  0
 17 29  2  0
  6 30  2  0
 30  2  1  0
 29  8  1  0
 29 13  1  0
 28 18  1  0
 27 22  1  0
  1 31  1  0
  1 32  1  0
  1 33  1  0
  3 34  1  0
  4 35  1  0
  5 36  1  0
  7 37  1  0
 12 38  1  0
 12 39  1  0
 12 40  1  0
 15 41  1  0
 19 42  1  0
 20 43  1  0
 23 44  1  0
 23 45  1  0
 24 46  1  0
 24 47  1  0
 26 48  1  0
 26 49  1  0
 27 50  1  0
 27 51  1  0
 28 52  1  0
 30 53  1  0
M  END
$$$$
