
     RDKit          3D

 39 41  0  0  0  0  0  0  0  0999 V2000
    5.1270   -1.0173    1.0264 C   0  0  0  0  0  0  0  0  0  0  0  0
    3.8943   -0.5239    1.6269 N   0  0  0  0  0  0  0  0  0  0  0  0
    3.9894   -0.0093    2.9820 C   0  0  0  0  0  0  0  0  0  0  0  0
    2.9720    0.1381    0.8534 N   0  0  0  0  0  0  0  0  0  0  0  0
    3.0073   -0.1836   -0.3508 N   0  0  0  0  0  0  0  0  0  0  0  0
    2.0212    0.5135   -1.0668 C   0  0  0  0  0  0  0  0  0  0  0  0
    2.3927    1.4474   -2.0291 C   0  0  0  0  0  0  0  0  0  0  0  0
    1.4168    2.1319   -2.7611 C   0  0  0  0  0  0  0  0  0  0  0  0
    0.0605    1.9021   -2.5705 C   0  0  0  0  0  0  0  0  0  0  0  0
   -0.8123    2.6053   -3.2985 N   0  0  0  0  0  0  0  0  0  0  0  0
   -2.1116    2.3700   -3.0838 C   0  0  0  0  0  0  0  0  0  0  0  0
   -2.6183    1.4894   -2.2172 N   0  0  0  0  0  0  0  0  0  0  0  0
   -1.7227    0.7721   -1.5027 C   0  0  0  0  0  0  0  0  0  0  0  0
   -2.3533   -0.1973   -0.5906 C   0  0  0  0  0  0  0  0  0  0  0  0
   -2.1665   -1.5808   -0.7503 C   0  0  0  0  0  0  0  0  0  0  0  0
   -2.7806   -2.4957    0.1101 C   0  0  0  0  0  0  0  0  0  0  0  0
   -3.6040   -2.0483    1.1412 C   0  0  0  0  0  0  0  0  0  0  0  0
   -4.1507   -3.0333    1.9172 O   0  0  0  0  0  0  0  0  0  0  0  0
   -3.8132   -0.6739    1.3085 C   0  0  0  0  0  0  0  0  0  0  0  0
   -4.6735   -0.1667    2.3794 N   0  0  0  0  0  0  0  0  0  0  0  0
   -5.2633   -1.0035    3.0828 O   0  0  0  0  0  0  0  0  0  0  0  0
   -4.7607    1.0595    2.5296 O   0  0  0  0  0  0  0  0  0  0  0  0
   -3.1940    0.2461    0.4452 C   0  0  0  0  0  0  0  0  0  0  0  0
   -0.3327    0.9459   -1.6237 C   0  0  0  0  0  0  0  0  0  0  0  0
    0.6596    0.2599   -0.8744 C   0  0  0  0  0  0  0  0  0  0  0  0
    5.7604   -0.1681    0.7545 H   0  0  0  0  0  0  0  0  0  0  0  0
    5.6499   -1.6476    1.7520 H   0  0  0  0  0  0  0  0  0  0  0  0
    4.9103   -1.6288    0.1463 H   0  0  0  0  0  0  0  0  0  0  0  0
    4.5898    0.9049    2.9803 H   0  0  0  0  0  0  0  0  0  0  0  0
    4.4570   -0.7628    3.6219 H   0  0  0  0  0  0  0  0  0  0  0  0
    2.9868    0.2044    3.3646 H   0  0  0  0  0  0  0  0  0  0  0  0
    3.4453    1.6527   -2.2061 H   0  0  0  0  0  0  0  0  0  0  0  0
    1.7274    2.8682   -3.4999 H   0  0  0  0  0  0  0  0  0  0  0  0
   -2.8186    2.9478   -3.6693 H   0  0  0  0  0  0  0  0  0  0  0  0
   -1.5445   -1.9598   -1.5605 H   0  0  0  0  0  0  0  0  0  0  0  0
   -2.6210   -3.5627   -0.0311 H   0  0  0  0  0  0  0  0  0  0  0  0
   -4.7450   -2.6381    2.5899 H   0  0  0  0  0  0  0  0  0  0  0  0
   -3.3613    1.3171    0.5608 H   0  0  0  0  0  0  0  0  0  0  0  0
    0.3800   -0.4747   -0.1225 H   0  0  0  0  0  0  0  0  0  0  0  0
  1  2  1  0
  2  3  1  0
  2  4  1  0
  4  5  2  0
  5  6  1  0
  6  7  1  0
  7  8  2  0
  8  9  1  0
  9 10  2  0
 10 11  1  0
 11 12  2  0
 12 13  1  0
 13 14  1  0
 14 15  1  0
 15 16  2  0
 16 17  1  0
 17 18  1  0
 17 19  2  0
 19 20  1  0
 20 21  2  0
 20 22  1  0
 19 23  1  0
 13 24  2  0
 24 25  1  0
 25  6  2  0
 24  9  1  0
 23 14  2  0
  1 26  1  0
  1 27  1  0
  1 28  1  0
  3 29  1  0
  3 30  1  0
  3 31  1  0
  7 32  1  0
  8 33  1  0
 11 34  1  0
 15 35  1  0
 16 36  1  0
 18 37  1  0
 23 38  1  0
 25 39  1  0
M  CHG  2  20   1  22  -1
M  END
$$$$
