
     RDKit          3D

 36 37  0  0  0  0  0  0  0  0999 V2000
    0.5638    2.6799   -2.3268 C   0  0  0  0  0  0  0  0  0  0  0  0
    0.8497    2.6391   -0.8328 C   0  0  0  0  0  0  0  0  0  0  0  0
    0.2633    1.4520   -0.1978 N   0  0  0  0  0  0  0  0  0  0  0  0
   -1.1055    1.5348    0.1144 C   0  0  0  0  0  0  0  0  0  0  0  0
   -1.7060    2.6075    0.2104 O   0  0  0  0  0  0  0  0  0  0  0  0
   -1.9458    0.3071    0.1866 C   0  0  0  0  0  0  0  0  0  0  0  0
   -1.7553   -0.7709   -0.6909 C   0  0  0  0  0  0  0  0  0  0  0  0
   -2.5941   -1.8850   -0.6213 C   0  0  0  0  0  0  0  0  0  0  0  0
   -3.6321   -1.9098    0.3061 C   0  0  0  0  0  0  0  0  0  0  0  0
   -4.4238   -2.9911    0.3553 F   0  0  0  0  0  0  0  0  0  0  0  0
   -3.8485   -0.8288    1.1595 C   0  0  0  0  0  0  0  0  0  0  0  0
   -5.1397   -0.8556    2.2975 Cl  0  0  0  0  0  0  0  0  0  0  0  0
   -3.0142    0.2865    1.0957 C   0  0  0  0  0  0  0  0  0  0  0  0
    1.0524    0.3516    0.1650 C   0  0  0  0  0  0  0  0  0  0  0  0
    2.1536    0.0120   -0.5918 N   0  0  0  0  0  0  0  0  0  0  0  0
    2.7382   -1.1315   -0.1154 C   0  0  0  0  0  0  0  0  0  0  0  0
    3.9050   -1.7530   -0.7865 C   0  0  0  0  0  0  0  0  0  0  0  0
    2.0566   -1.4854    1.0256 C   0  0  0  0  0  0  0  0  0  0  0  0
    1.0146   -0.5332    1.2374 C   0  0  0  0  0  0  0  0  0  0  0  0
    0.1490   -0.5203    2.4486 C   0  0  0  0  0  0  0  0  0  0  0  0
    0.9665    1.7958   -2.8311 H   0  0  0  0  0  0  0  0  0  0  0  0
    1.0192    3.5677   -2.7761 H   0  0  0  0  0  0  0  0  0  0  0  0
   -0.5128    2.7127   -2.5230 H   0  0  0  0  0  0  0  0  0  0  0  0
    0.4408    3.5406   -0.3619 H   0  0  0  0  0  0  0  0  0  0  0  0
    1.9305    2.6604   -0.6524 H   0  0  0  0  0  0  0  0  0  0  0  0
   -0.9606   -0.7501   -1.4324 H   0  0  0  0  0  0  0  0  0  0  0  0
   -2.4483   -2.7308   -1.2865 H   0  0  0  0  0  0  0  0  0  0  0  0
   -3.1865    1.1393    1.7489 H   0  0  0  0  0  0  0  0  0  0  0  0
    2.4428    0.4966   -1.4285 H   0  0  0  0  0  0  0  0  0  0  0  0
    4.7578   -1.0666   -0.7884 H   0  0  0  0  0  0  0  0  0  0  0  0
    3.6622   -2.0078   -1.8231 H   0  0  0  0  0  0  0  0  0  0  0  0
    4.2093   -2.6713   -0.2743 H   0  0  0  0  0  0  0  0  0  0  0  0
    2.2988   -2.3241    1.6675 H   0  0  0  0  0  0  0  0  0  0  0  0
    0.7327   -0.7947    3.3344 H   0  0  0  0  0  0  0  0  0  0  0  0
   -0.2701    0.4719    2.6380 H   0  0  0  0  0  0  0  0  0  0  0  0
   -0.6636   -1.2455    2.3503 H   0  0  0  0  0  0  0  0  0  0  0  0
  1  2  1  0
  2  3  1  0
  3  4  1  0
  4  5  2  0
  4  6  1  0
  6  7  1  0
  7  8  2  0
  8  9  1  0
  9 10  1  0
  9 11  2  0
 11 12  1  0
 11 13  1  0
  3 14  1  0
 14 15  1  0
 15 16  1  0
 16 17  1  0
 16 18  2  0
 18 19  1  0
 19 20  1  0
 13  6  2  0
 19 14  2  0
  1 21  1  0
  1 22  1  0
  1 23  1  0
  2 24  1  0
  2 25  1  0
  7 26  1  0
  8 27  1  0
 13 28  1  0
 15 29  1  0
 17 30  1  0
 17 31  1  0
 17 32  1  0
 18 33  1  0
 20 34  1  0
 20 35  1  0
 20 36  1  0
M  END
$$$$
