
     RDKit          3D

 49 52  0  0  0  0  0  0  0  0999 V2000
   -2.0612    0.2848    2.7364 C   0  0  0  0  0  0  0  0  0  0  0  0
   -1.6366   -0.2166    1.4031 C   0  0  0  0  0  0  0  0  0  0  0  0
   -0.4125   -0.9086    1.1521 C   0  0  0  0  0  0  0  0  0  0  0  0
   -0.3311   -1.1845   -0.1992 C   0  0  0  0  0  0  0  0  0  0  0  0
    0.6642   -1.9009   -0.9785 C   0  0  0  0  0  0  0  0  0  0  0  0
    0.1181   -2.8347   -1.7955 N   0  0  0  0  0  0  0  0  0  0  0  0
    0.9567   -3.7316   -2.3474 C   0  0  0  0  0  0  0  0  0  0  0  0
    2.2772   -3.8016   -2.1427 N   0  0  0  0  0  0  0  0  0  0  0  0
    2.7439   -2.8221   -1.3698 C   0  0  0  0  0  0  0  0  0  0  0  0
    2.0176   -1.7851   -0.8111 C   0  0  0  0  0  0  0  0  0  0  0  0
    2.9825   -0.9397   -0.0942 C   0  0  0  0  0  0  0  0  0  0  0  0
    2.9302    0.3493    0.3073 C   0  0  0  0  0  0  0  0  0  0  0  0
    1.8268    1.2025   -0.0207 C   0  0  0  0  0  0  0  0  0  0  0  0
    0.9967    1.9472   -0.3400 N   0  0  0  0  0  0  0  0  0  0  0  0
    4.0502    1.0441    0.9836 C   0  0  0  0  0  0  0  0  0  0  0  0
    3.9815    1.0191    2.3770 N   0  0  0  0  0  0  0  0  0  0  0  0
    5.0395    1.6431    0.2654 C   0  0  0  0  0  0  0  0  0  0  0  0
    6.1130    2.3127    0.9166 C   0  0  0  0  0  0  0  0  0  0  0  0
    6.9799    2.8488    1.4718 N   0  0  0  0  0  0  0  0  0  0  0  0
    5.0581    1.6100   -1.1591 C   0  0  0  0  0  0  0  0  0  0  0  0
    5.0310    1.5417   -2.3172 N   0  0  0  0  0  0  0  0  0  0  0  0
    4.2794   -1.7128   -0.0924 C   0  0  0  0  0  0  0  0  0  0  0  0
    5.3075   -1.4371    0.4926 O   0  0  0  0  0  0  0  0  0  0  0  0
    4.0613   -2.7745   -0.9392 N   0  0  0  0  0  0  0  0  0  0  0  0
   -1.5042   -0.7321   -0.7509 N   0  0  0  0  0  0  0  0  0  0  0  0
   -2.2904   -0.1025    0.1851 C   0  0  0  0  0  0  0  0  0  0  0  0
   -3.4824    0.4330   -0.1999 N   0  0  0  0  0  0  0  0  0  0  0  0
   -3.6327    1.0825   -1.5188 C   0  0  0  0  0  0  0  0  0  0  0  0
   -4.4934    2.3514   -1.4052 C   0  0  0  0  0  0  0  0  0  0  0  0
   -5.8114    2.1103   -0.8908 O   0  0  0  0  0  0  0  0  0  0  0  0
   -5.8574    1.0302    0.0546 C   0  0  0  0  0  0  0  0  0  0  0  0
   -4.5246    0.7764    0.7783 C   0  0  0  0  0  0  0  0  0  0  0  0
   -2.3016    1.3513    2.6928 H   0  0  0  0  0  0  0  0  0  0  0  0
   -1.2632    0.1589    3.4760 H   0  0  0  0  0  0  0  0  0  0  0  0
   -2.9357   -0.2648    3.0968 H   0  0  0  0  0  0  0  0  0  0  0  0
    0.3230   -1.1770    1.8992 H   0  0  0  0  0  0  0  0  0  0  0  0
    0.5155   -4.4786   -2.9994 H   0  0  0  0  0  0  0  0  0  0  0  0
    3.5482    0.1801    2.7623 H   0  0  0  0  0  0  0  0  0  0  0  0
    4.8602    1.2166    2.8600 H   0  0  0  0  0  0  0  0  0  0  0  0
    4.7446   -3.4782   -1.1730 H   0  0  0  0  0  0  0  0  0  0  0  0
   -1.7672   -0.8736   -1.7139 H   0  0  0  0  0  0  0  0  0  0  0  0
   -2.6610    1.3617   -1.9429 H   0  0  0  0  0  0  0  0  0  0  0  0
   -4.1131    0.3689   -2.1983 H   0  0  0  0  0  0  0  0  0  0  0  0
   -4.0081    3.0853   -0.7508 H   0  0  0  0  0  0  0  0  0  0  0  0
   -4.6065    2.8176   -2.3891 H   0  0  0  0  0  0  0  0  0  0  0  0
   -6.6423    1.2640    0.7809 H   0  0  0  0  0  0  0  0  0  0  0  0
   -6.1714    0.1312   -0.4888 H   0  0  0  0  0  0  0  0  0  0  0  0
   -4.2306    1.6786    1.3268 H   0  0  0  0  0  0  0  0  0  0  0  0
   -4.6680   -0.0442    1.4895 H   0  0  0  0  0  0  0  0  0  0  0  0
  1  2  1  0
  2  3  1  0
  3  4  2  0
  4  5  1  0
  5  6  1  0
  6  7  2  0
  7  8  1  0
  8  9  2  0
  9 10  1  0
 10 11  1  0
 11 12  2  3
 12 13  1  0
 13 14  3  0
 12 15  1  0
 15 16  1  0
 15 17  2  3
 17 18  1  0
 18 19  3  0
 17 20  1  0
 20 21  3  0
 11 22  1  0
 22 23  2  0
 22 24  1  0
  4 25  1  0
 25 26  1  0
 26 27  1  0
 27 28  1  0
 28 29  1  0
 29 30  1  0
 30 31  1  0
 31 32  1  0
 26  2  2  0
 32 27  1  0
 10  5  2  0
 24  9  1  0
  1 33  1  0
  1 34  1  0
  1 35  1  0
  3 36  1  0
  7 37  1  0
 16 38  1  0
 16 39  1  0
 24 40  1  0
 25 41  1  0
 28 42  1  0
 28 43  1  0
 29 44  1  0
 29 45  1  0
 31 46  1  0
 31 47  1  0
 32 48  1  0
 32 49  1  0
M  END
$$$$
