
     RDKit          3D

 43 46  0  0  0  0  0  0  0  0999 V2000
    6.5198    3.3850    2.4683 Br  0  0  0  0  0  0  0  0  0  0  0  0
    6.2051    1.8174    1.4601 C   0  0  0  0  0  0  0  0  0  0  0  0
    6.9804    1.5531    0.3331 C   0  0  0  0  0  0  0  0  0  0  0  0
    6.7428    0.3992   -0.4126 C   0  0  0  0  0  0  0  0  0  0  0  0
    5.7338   -0.4870   -0.0290 C   0  0  0  0  0  0  0  0  0  0  0  0
    4.9529   -0.2286    1.1071 C   0  0  0  0  0  0  0  0  0  0  0  0
    3.8561   -1.1795    1.5230 C   0  0  0  0  0  0  0  0  0  0  0  0
    2.5156   -0.5847    1.3952 N   0  0  0  0  0  0  0  0  0  0  0  0
    1.9815   -0.8561    0.3037 N   0  0  0  0  0  0  0  0  0  0  0  0
    0.7885   -0.2373    0.3179 N   0  0  0  0  0  0  0  0  0  0  0  0
   -0.2098   -0.6413   -0.5821 C   0  0  0  0  0  0  0  0  0  0  0  0
    0.0586   -1.4151   -1.7107 C   0  0  0  0  0  0  0  0  0  0  0  0
   -0.9579   -1.7339   -2.6200 C   0  0  0  0  0  0  0  0  0  0  0  0
   -2.2602   -1.2866   -2.4532 C   0  0  0  0  0  0  0  0  0  0  0  0
   -3.1768   -1.6228   -3.3676 N   0  0  0  0  0  0  0  0  0  0  0  0
   -4.4159   -1.1520   -3.1849 C   0  0  0  0  0  0  0  0  0  0  0  0
   -4.8255   -0.3863   -2.1715 N   0  0  0  0  0  0  0  0  0  0  0  0
   -3.8901   -0.0726   -1.2475 C   0  0  0  0  0  0  0  0  0  0  0  0
   -4.4052    0.7425   -0.1370 C   0  0  0  0  0  0  0  0  0  0  0  0
   -4.5558    0.2011    1.1511 C   0  0  0  0  0  0  0  0  0  0  0  0
   -5.0384    0.9817    2.2043 C   0  0  0  0  0  0  0  0  0  0  0  0
   -5.3827    2.3129    1.9828 C   0  0  0  0  0  0  0  0  0  0  0  0
   -5.2533    2.8627    0.7091 C   0  0  0  0  0  0  0  0  0  0  0  0
   -4.7722    2.0815   -0.3439 C   0  0  0  0  0  0  0  0  0  0  0  0
   -2.5515   -0.4921   -1.3388 C   0  0  0  0  0  0  0  0  0  0  0  0
   -1.5148   -0.1631   -0.4222 C   0  0  0  0  0  0  0  0  0  0  0  0
    5.1955    0.9371    1.8494 C   0  0  0  0  0  0  0  0  0  0  0  0
    7.7633    2.2402    0.0256 H   0  0  0  0  0  0  0  0  0  0  0  0
    7.3409    0.1923   -1.2960 H   0  0  0  0  0  0  0  0  0  0  0  0
    5.5564   -1.3779   -0.6283 H   0  0  0  0  0  0  0  0  0  0  0  0
    3.9245   -2.1219    0.9625 H   0  0  0  0  0  0  0  0  0  0  0  0
    4.0138   -1.4499    2.5742 H   0  0  0  0  0  0  0  0  0  0  0  0
    0.4743    0.0762    1.2294 H   0  0  0  0  0  0  0  0  0  0  0  0
    1.0641   -1.7792   -1.9049 H   0  0  0  0  0  0  0  0  0  0  0  0
   -0.7173   -2.3417   -3.4900 H   0  0  0  0  0  0  0  0  0  0  0  0
   -5.1569   -1.4184   -3.9306 H   0  0  0  0  0  0  0  0  0  0  0  0
   -4.3051   -0.8417    1.3364 H   0  0  0  0  0  0  0  0  0  0  0  0
   -5.1526    0.5482    3.1944 H   0  0  0  0  0  0  0  0  0  0  0  0
   -5.7618    2.9201    2.8004 H   0  0  0  0  0  0  0  0  0  0  0  0
   -5.5333    3.8981    0.5317 H   0  0  0  0  0  0  0  0  0  0  0  0
   -4.6862    2.5195   -1.3366 H   0  0  0  0  0  0  0  0  0  0  0  0
   -1.7348    0.4871    0.4220 H   0  0  0  0  0  0  0  0  0  0  0  0
    4.5901    1.1555    2.7260 H   0  0  0  0  0  0  0  0  0  0  0  0
  1  2  1  0
  2  3  1  0
  3  4  2  0
  4  5  1  0
  5  6  2  0
  6  7  1  0
  7  8  1  0
  8  9  2  0
  9 10  1  0
 10 11  1  0
 11 12  1  0
 12 13  2  0
 13 14  1  0
 14 15  2  0
 15 16  1  0
 16 17  2  0
 17 18  1  0
 18 19  1  0
 19 20  2  0
 20 21  1  0
 21 22  2  0
 22 23  1  0
 23 24  2  0
 18 25  2  0
 25 26  1  0
  6 27  1  0
 27  2  2  0
 26 11  2  0
 25 14  1  0
 24 19  1  0
  3 28  1  0
  4 29  1  0
  5 30  1  0
  7 31  1  0
  7 32  1  0
 10 33  1  0
 12 34  1  0
 13 35  1  0
 16 36  1  0
 20 37  1  0
 21 38  1  0
 22 39  1  0
 23 40  1  0
 24 41  1  0
 26 42  1  0
 27 43  1  0
M  END
$$$$
