
     RDKit          3D

 47 50  0  0  0  0  0  0  0  0999 V2000
    5.7461   -1.6344   -1.4559 C   0  0  0  0  0  0  0  0  0  0  0  0
    4.6026   -1.7352   -0.4908 C   0  0  0  0  0  0  0  0  0  0  0  0
    4.7409   -2.4548    0.7018 C   0  0  0  0  0  0  0  0  0  0  0  0
    3.6890   -2.5147    1.6165 C   0  0  0  0  0  0  0  0  0  0  0  0
    2.4931   -1.8464    1.3526 C   0  0  0  0  0  0  0  0  0  0  0  0
    2.3469   -1.1070    0.1751 C   0  0  0  0  0  0  0  0  0  0  0  0
    1.0778   -0.4278   -0.1011 C   0  0  0  0  0  0  0  0  0  0  0  0
    0.8641    0.8964   -0.0509 C   0  0  0  0  0  0  0  0  0  0  0  0
    1.8793    1.9463    0.3400 C   0  0  0  0  0  0  0  0  0  0  0  0
    3.0500    1.7871    0.6242 O   0  0  0  0  0  0  0  0  0  0  0  0
    1.1722    3.1381    0.3168 N   0  0  0  0  0  0  0  0  0  0  0  0
    1.7100    4.4337    0.6283 C   0  0  0  0  0  0  0  0  0  0  0  0
   -0.1615    2.9419   -0.0523 C   0  0  0  0  0  0  0  0  0  0  0  0
   -1.0633    3.9288   -0.1374 N   0  0  0  0  0  0  0  0  0  0  0  0
   -2.2858    3.5291   -0.5045 C   0  0  0  0  0  0  0  0  0  0  0  0
   -2.6545    2.2674   -0.7735 N   0  0  0  0  0  0  0  0  0  0  0  0
   -1.6803    1.3199   -0.6762 C   0  0  0  0  0  0  0  0  0  0  0  0
   -2.0916   -0.0492   -1.0748 C   0  0  0  0  0  0  0  0  0  0  0  0
   -1.4725   -0.5915   -1.9888 O   0  0  0  0  0  0  0  0  0  0  0  0
   -3.1667   -0.6537   -0.4199 N   0  0  0  0  0  0  0  0  0  0  0  0
   -3.6598   -0.2384    0.8994 C   0  0  0  0  0  0  0  0  0  0  0  0
   -5.1226   -0.6435    1.1022 C   0  0  0  0  0  0  0  0  0  0  0  0
   -5.3073   -2.0459    0.8630 O   0  0  0  0  0  0  0  0  0  0  0  0
   -4.9530   -2.3702   -0.4902 C   0  0  0  0  0  0  0  0  0  0  0  0
   -3.4856   -2.0390   -0.7723 C   0  0  0  0  0  0  0  0  0  0  0  0
   -0.3951    1.6035   -0.3014 C   0  0  0  0  0  0  0  0  0  0  0  0
    3.4027   -1.0555   -0.7429 C   0  0  0  0  0  0  0  0  0  0  0  0
    6.3732   -2.5312   -1.4145 H   0  0  0  0  0  0  0  0  0  0  0  0
    5.3816   -1.5410   -2.4844 H   0  0  0  0  0  0  0  0  0  0  0  0
    6.3613   -0.7615   -1.2172 H   0  0  0  0  0  0  0  0  0  0  0  0
    5.6718   -2.9700    0.9267 H   0  0  0  0  0  0  0  0  0  0  0  0
    3.8044   -3.0776    2.5388 H   0  0  0  0  0  0  0  0  0  0  0  0
    1.6836   -1.9007    2.0755 H   0  0  0  0  0  0  0  0  0  0  0  0
    0.2831   -1.1217   -0.3584 H   0  0  0  0  0  0  0  0  0  0  0  0
    2.7698    4.3552    0.8863 H   0  0  0  0  0  0  0  0  0  0  0  0
    1.1677    4.8562    1.4794 H   0  0  0  0  0  0  0  0  0  0  0  0
    1.6037    5.0891   -0.2413 H   0  0  0  0  0  0  0  0  0  0  0  0
   -3.0498    4.2950   -0.5923 H   0  0  0  0  0  0  0  0  0  0  0  0
   -3.5463    0.8348    1.0590 H   0  0  0  0  0  0  0  0  0  0  0  0
   -3.0273   -0.7501    1.6350 H   0  0  0  0  0  0  0  0  0  0  0  0
   -5.7843   -0.0767    0.4364 H   0  0  0  0  0  0  0  0  0  0  0  0
   -5.4277   -0.4373    2.1328 H   0  0  0  0  0  0  0  0  0  0  0  0
   -5.1299   -3.4404   -0.6354 H   0  0  0  0  0  0  0  0  0  0  0  0
   -5.6171   -1.8253   -1.1717 H   0  0  0  0  0  0  0  0  0  0  0  0
   -3.2538   -2.2323   -1.8247 H   0  0  0  0  0  0  0  0  0  0  0  0
   -2.8339   -2.6736   -0.1595 H   0  0  0  0  0  0  0  0  0  0  0  0
    3.2951   -0.4761   -1.6574 H   0  0  0  0  0  0  0  0  0  0  0  0
  1  2  1  0
  2  3  2  0
  3  4  1  0
  4  5  2  0
  5  6  1  0
  6  7  1  0
  7  8  2  3
  8  9  1  0
  9 10  2  0
  9 11  1  0
 11 12  1  0
 11 13  1  0
 13 14  2  0
 14 15  1  0
 15 16  2  0
 16 17  1  0
 17 18  1  0
 18 19  2  0
 18 20  1  0
 20 21  1  0
 21 22  1  0
 22 23  1  0
 23 24  1  0
 24 25  1  0
 17 26  2  0
  6 27  2  0
 27  2  1  0
 26  8  1  0
 26 13  1  0
 25 20  1  0
  1 28  1  0
  1 29  1  0
  1 30  1  0
  3 31  1  0
  4 32  1  0
  5 33  1  0
  7 34  1  0
 12 35  1  0
 12 36  1  0
 12 37  1  0
 15 38  1  0
 21 39  1  0
 21 40  1  0
 22 41  1  0
 22 42  1  0
 24 43  1  0
 24 44  1  0
 25 45  1  0
 25 46  1  0
 27 47  1  0
M  END
$$$$
