
     RDKit          3D

 34 35  0  0  0  0  0  0  0  0999 V2000
   -4.6325    1.0056    1.0723 C   0  0  0  0  0  0  0  0  0  0  0  0
   -4.2838   -0.0910    0.0764 C   0  0  0  0  0  0  0  0  0  0  0  0
   -2.9187   -0.5903    0.2856 N   0  0  0  0  0  0  0  0  0  0  0  0
   -2.7419   -1.5476    1.3738 C   0  0  0  0  0  0  0  0  0  0  0  0
   -1.8576    0.0761   -0.2599 C   0  0  0  0  0  0  0  0  0  0  0  0
   -1.7897    1.1432   -1.1323 C   0  0  0  0  0  0  0  0  0  0  0  0
   -0.4238    1.4326   -1.3710 C   0  0  0  0  0  0  0  0  0  0  0  0
    0.3387    0.5262   -0.6565 C   0  0  0  0  0  0  0  0  0  0  0  0
    1.7903    0.3814   -0.5453 C   0  0  0  0  0  0  0  0  0  0  0  0
    2.6176    1.5168   -0.5799 C   0  0  0  0  0  0  0  0  0  0  0  0
    4.0113    1.4073   -0.4786 C   0  0  0  0  0  0  0  0  0  0  0  0
    4.5978    0.1531   -0.3402 C   0  0  0  0  0  0  0  0  0  0  0  0
    5.9537    0.0376   -0.2646 O   0  0  0  0  0  0  0  0  0  0  0  0
    3.7779   -0.9730   -0.3037 C   0  0  0  0  0  0  0  0  0  0  0  0
    4.3576   -2.2887   -0.1482 N   0  0  0  0  0  0  0  0  0  0  0  0
    4.8872   -2.5529    0.9400 O   0  0  0  0  0  0  0  0  0  0  0  0
    4.2172   -3.0776   -1.0935 O   0  0  0  0  0  0  0  0  0  0  0  0
    2.3840   -0.8781   -0.4109 C   0  0  0  0  0  0  0  0  0  0  0  0
   -0.5580   -0.2844    0.0089 N   0  0  0  0  0  0  0  0  0  0  0  0
   -3.9629    1.8656    0.9719 H   0  0  0  0  0  0  0  0  0  0  0  0
   -4.5586    0.6427    2.1027 H   0  0  0  0  0  0  0  0  0  0  0  0
   -5.6573    1.3531    0.9080 H   0  0  0  0  0  0  0  0  0  0  0  0
   -4.9984   -0.9163    0.1844 H   0  0  0  0  0  0  0  0  0  0  0  0
   -4.4166    0.2757   -0.9483 H   0  0  0  0  0  0  0  0  0  0  0  0
   -3.6904   -2.0185    1.6545 H   0  0  0  0  0  0  0  0  0  0  0  0
   -2.3395   -1.0510    2.2634 H   0  0  0  0  0  0  0  0  0  0  0  0
   -2.0643   -2.3557    1.0777 H   0  0  0  0  0  0  0  0  0  0  0  0
   -2.6319    1.6709   -1.5572 H   0  0  0  0  0  0  0  0  0  0  0  0
   -0.0423    2.2152   -2.0137 H   0  0  0  0  0  0  0  0  0  0  0  0
    2.1776    2.5080   -0.6796 H   0  0  0  0  0  0  0  0  0  0  0  0
    4.6122    2.3117   -0.5140 H   0  0  0  0  0  0  0  0  0  0  0  0
    6.3619    0.9203   -0.2626 H   0  0  0  0  0  0  0  0  0  0  0  0
    1.7803   -1.7824   -0.4082 H   0  0  0  0  0  0  0  0  0  0  0  0
   -0.2974   -1.0356    0.6262 H   0  0  0  0  0  0  0  0  0  0  0  0
  1  2  1  0
  2  3  1  0
  3  4  1  0
  3  5  1  0
  5  6  2  0
  6  7  1  0
  7  8  2  0
  8  9  1  0
  9 10  1  0
 10 11  2  0
 11 12  1  0
 12 13  1  0
 12 14  2  0
 14 15  1  0
 15 16  2  0
 15 17  1  0
 14 18  1  0
  8 19  1  0
 19  5  1  0
 18  9  2  0
  1 20  1  0
  1 21  1  0
  1 22  1  0
  2 23  1  0
  2 24  1  0
  4 25  1  0
  4 26  1  0
  4 27  1  0
  6 28  1  0
  7 29  1  0
 10 30  1  0
 11 31  1  0
 13 32  1  0
 18 33  1  0
 19 34  1  0
M  CHG  2  15   1  17  -1
M  END
$$$$
