
     RDKit          3D

 50 51  0  0  0  0  0  0  0  0999 V2000
   -4.1335    1.6784   -1.3010 C   0  0  0  0  0  0  0  0  0  0  0  0
   -3.7563    1.0555    0.0177 C   0  0  0  0  0  0  0  0  0  0  0  0
   -4.4193    1.5524    1.1606 C   0  0  0  0  0  0  0  0  0  0  0  0
   -4.1753    1.0335    2.4276 C   0  0  0  0  0  0  0  0  0  0  0  0
   -3.2670   -0.0047    2.5787 C   0  0  0  0  0  0  0  0  0  0  0  0
   -2.5909   -0.5043    1.4628 C   0  0  0  0  0  0  0  0  0  0  0  0
   -1.4489   -1.7865    1.7510 Cl  0  0  0  0  0  0  0  0  0  0  0  0
   -2.7926    0.0273    0.1590 C   0  0  0  0  0  0  0  0  0  0  0  0
   -2.0556   -0.5099   -0.9019 N   0  0  0  0  0  0  0  0  0  0  0  0
   -2.7443   -1.5680   -1.6536 C   0  0  0  0  0  0  0  0  0  0  0  0
   -2.0342   -1.5851   -3.0015 C   0  0  0  0  0  0  0  0  0  0  0  0
   -1.6702   -0.1210   -3.2066 C   0  0  0  0  0  0  0  0  0  0  0  0
   -1.2767    0.3372   -1.7983 C   0  0  0  0  0  0  0  0  0  0  0  0
    0.1119    0.0251   -1.6392 O   0  0  0  0  0  0  0  0  0  0  0  0
    0.6720    0.5903   -0.4531 C   0  0  0  0  0  0  0  0  0  0  0  0
    2.0404   -0.0727   -0.2540 C   0  0  0  0  0  0  0  0  0  0  0  0
    1.8712   -1.4973   -0.3019 O   0  0  0  0  0  0  0  0  0  0  0  0
    2.6417    0.3400    1.1010 C   0  0  0  0  0  0  0  0  0  0  0  0
    4.1126   -0.1166    1.3302 N   0  0  0  0  0  0  0  0  0  0  0  0
    4.2507   -1.6338    1.1960 C   0  0  0  0  0  0  0  0  0  0  0  0
    5.0600    0.5642    0.3576 C   0  0  0  0  0  0  0  0  0  0  0  0
    4.5043    0.2715    2.7551 C   0  0  0  0  0  0  0  0  0  0  0  0
   -3.3958    2.4312   -1.5938 H   0  0  0  0  0  0  0  0  0  0  0  0
   -4.2325    0.9273   -2.0878 H   0  0  0  0  0  0  0  0  0  0  0  0
   -5.1066    2.1803   -1.2394 H   0  0  0  0  0  0  0  0  0  0  0  0
   -5.1531    2.3557    1.0614 H   0  0  0  0  0  0  0  0  0  0  0  0
   -4.7068    1.4293    3.2900 H   0  0  0  0  0  0  0  0  0  0  0  0
   -3.0846   -0.4192    3.5657 H   0  0  0  0  0  0  0  0  0  0  0  0
   -3.8087   -1.3478   -1.7915 H   0  0  0  0  0  0  0  0  0  0  0  0
   -2.6530   -2.5361   -1.1513 H   0  0  0  0  0  0  0  0  0  0  0  0
   -1.1257   -2.1985   -2.9436 H   0  0  0  0  0  0  0  0  0  0  0  0
   -2.6650   -1.9833   -3.8001 H   0  0  0  0  0  0  0  0  0  0  0  0
   -0.8630   -0.0086   -3.9358 H   0  0  0  0  0  0  0  0  0  0  0  0
   -2.5447    0.4337   -3.5660 H   0  0  0  0  0  0  0  0  0  0  0  0
   -1.4193    1.4152   -1.6764 H   0  0  0  0  0  0  0  0  0  0  0  0
    0.0368    0.3854    0.4096 H   0  0  0  0  0  0  0  0  0  0  0  0
    0.7776    1.6729   -0.5749 H   0  0  0  0  0  0  0  0  0  0  0  0
    2.6893    0.1969   -1.0939 H   0  0  0  0  0  0  0  0  0  0  0  0
    1.1369   -1.6475   -0.9373 H   0  0  0  0  0  0  0  0  0  0  0  0
    2.0612   -0.1036    1.9188 H   0  0  0  0  0  0  0  0  0  0  0  0
    2.6387    1.4310    1.2117 H   0  0  0  0  0  0  0  0  0  0  0  0
    5.2397   -1.9199    1.5717 H   0  0  0  0  0  0  0  0  0  0  0  0
    4.1820   -1.9071    0.1404 H   0  0  0  0  0  0  0  0  0  0  0  0
    3.4692   -2.1105    1.7951 H   0  0  0  0  0  0  0  0  0  0  0  0
    6.0860    0.2918    0.6189 H   0  0  0  0  0  0  0  0  0  0  0  0
    4.9236    1.6465    0.4428 H   0  0  0  0  0  0  0  0  0  0  0  0
    4.8365    0.2289   -0.6586 H   0  0  0  0  0  0  0  0  0  0  0  0
    5.5479   -0.0119    2.9206 H   0  0  0  0  0  0  0  0  0  0  0  0
    4.3833    1.3533    2.8644 H   0  0  0  0  0  0  0  0  0  0  0  0
    3.8499   -0.2610    3.4531 H   0  0  0  0  0  0  0  0  0  0  0  0
  1  2  1  0
  2  3  2  0
  3  4  1  0
  4  5  2  0
  5  6  1  0
  6  7  1  0
  6  8  2  0
  8  9  1  0
  9 10  1  0
 10 11  1  0
 11 12  1  0
 12 13  1  0
 13 14  1  0
 14 15  1  0
 15 16  1  0
 16 17  1  0
 16 18  1  0
 18 19  1  0
 19 20  1  0
 19 21  1  0
 19 22  1  0
  8  2  1  0
 13  9  1  0
  1 23  1  0
  1 24  1  0
  1 25  1  0
  3 26  1  0
  4 27  1  0
  5 28  1  0
 10 29  1  0
 10 30  1  0
 11 31  1  0
 11 32  1  0
 12 33  1  0
 12 34  1  0
 13 35  1  0
 15 36  1  0
 15 37  1  0
 16 38  1  0
 17 39  1  0
 18 40  1  0
 18 41  1  0
 20 42  1  0
 20 43  1  0
 20 44  1  0
 21 45  1  0
 21 46  1  0
 21 47  1  0
 22 48  1  0
 22 49  1  0
 22 50  1  0
M  CHG  1  19   1
M  END
$$$$
