
     RDKit          3D

 44 46  0  0  0  0  0  0  0  0999 V2000
    2.0953   -2.8884    1.2430 C   0  0  0  0  0  0  0  0  0  0  0  0
    1.8931   -1.4451    1.6905 C   0  0  0  0  0  0  0  0  0  0  0  0
    1.8536   -0.5155    0.5445 N   0  0  0  0  0  0  0  0  0  0  0  0
    3.0542    0.1179    0.1337 C   0  0  0  0  0  0  0  0  0  0  0  0
    3.0069    1.2633   -0.6870 C   0  0  0  0  0  0  0  0  0  0  0  0
    4.1648    1.9272   -1.1068 C   0  0  0  0  0  0  0  0  0  0  0  0
    5.4124    1.4631   -0.7109 C   0  0  0  0  0  0  0  0  0  0  0  0
    5.4963    0.3402    0.1041 C   0  0  0  0  0  0  0  0  0  0  0  0
    4.3321   -0.3191    0.5216 C   0  0  0  0  0  0  0  0  0  0  0  0
    0.7182   -0.5083   -0.2189 C   0  0  0  0  0  0  0  0  0  0  0  0
   -0.4823   -0.1680    0.3519 N   0  0  0  0  0  0  0  0  0  0  0  0
   -1.5008   -0.2061   -0.5745 C   0  0  0  0  0  0  0  0  0  0  0  0
   -2.8907    0.1267   -0.2592 C   0  0  0  0  0  0  0  0  0  0  0  0
   -3.7049    0.7406   -1.2208 C   0  0  0  0  0  0  0  0  0  0  0  0
   -5.0362    1.0618   -0.9379 C   0  0  0  0  0  0  0  0  0  0  0  0
   -5.5789    0.7714    0.3111 C   0  0  0  0  0  0  0  0  0  0  0  0
   -6.8889    1.1287    0.4750 O   0  0  0  0  0  0  0  0  0  0  0  0
   -4.7779    0.1563    1.2806 C   0  0  0  0  0  0  0  0  0  0  0  0
   -5.3103   -0.1627    2.6066 N   0  0  0  0  0  0  0  0  0  0  0  0
   -6.5143    0.0630    2.8101 O   0  0  0  0  0  0  0  0  0  0  0  0
   -4.5335   -0.6324    3.4499 O   0  0  0  0  0  0  0  0  0  0  0  0
   -3.4386   -0.1671    0.9969 C   0  0  0  0  0  0  0  0  0  0  0  0
   -0.9118   -0.5791   -1.7708 C   0  0  0  0  0  0  0  0  0  0  0  0
    0.4830   -0.7791   -1.5555 C   0  0  0  0  0  0  0  0  0  0  0  0
    1.4672   -1.2155   -2.5805 C   0  0  0  0  0  0  0  0  0  0  0  0
    2.1611   -3.5464    2.1152 H   0  0  0  0  0  0  0  0  0  0  0  0
    1.2579   -3.2326    0.6270 H   0  0  0  0  0  0  0  0  0  0  0  0
    3.0099   -3.0096    0.6553 H   0  0  0  0  0  0  0  0  0  0  0  0
    2.6631   -1.1572    2.4162 H   0  0  0  0  0  0  0  0  0  0  0  0
    0.9531   -1.3866    2.2547 H   0  0  0  0  0  0  0  0  0  0  0  0
    2.0461    1.6652   -1.0015 H   0  0  0  0  0  0  0  0  0  0  0  0
    4.0833    2.8070   -1.7391 H   0  0  0  0  0  0  0  0  0  0  0  0
    6.3147    1.9742   -1.0344 H   0  0  0  0  0  0  0  0  0  0  0  0
    6.4685   -0.0314    0.4172 H   0  0  0  0  0  0  0  0  0  0  0  0
    4.4623   -1.1986    1.1432 H   0  0  0  0  0  0  0  0  0  0  0  0
   -0.5749    0.1348    1.3089 H   0  0  0  0  0  0  0  0  0  0  0  0
   -3.3064    0.9871   -2.2033 H   0  0  0  0  0  0  0  0  0  0  0  0
   -5.6492    1.5413   -1.6980 H   0  0  0  0  0  0  0  0  0  0  0  0
   -7.2020    0.8587    1.3641 H   0  0  0  0  0  0  0  0  0  0  0  0
   -2.8278   -0.6671    1.7457 H   0  0  0  0  0  0  0  0  0  0  0  0
   -1.4311   -0.7112   -2.7119 H   0  0  0  0  0  0  0  0  0  0  0  0
    1.9261   -0.3477   -3.0640 H   0  0  0  0  0  0  0  0  0  0  0  0
    2.2580   -1.8287   -2.1370 H   0  0  0  0  0  0  0  0  0  0  0  0
    0.9792   -1.8163   -3.3550 H   0  0  0  0  0  0  0  0  0  0  0  0
  1  2  1  0
  2  3  1  0
  3  4  1  0
  4  5  2  0
  5  6  1  0
  6  7  2  0
  7  8  1  0
  8  9  2  0
  3 10  1  0
 10 11  1  0
 11 12  1  0
 12 13  1  0
 13 14  1  0
 14 15  2  0
 15 16  1  0
 16 17  1  0
 16 18  2  0
 18 19  1  0
 19 20  2  0
 19 21  1  0
 18 22  1  0
 12 23  2  0
 23 24  1  0
 24 25  1  0
  9  4  1  0
 24 10  2  0
 22 13  2  0
  1 26  1  0
  1 27  1  0
  1 28  1  0
  2 29  1  0
  2 30  1  0
  5 31  1  0
  6 32  1  0
  7 33  1  0
  8 34  1  0
  9 35  1  0
 11 36  1  0
 14 37  1  0
 15 38  1  0
 17 39  1  0
 22 40  1  0
 23 41  1  0
 25 42  1  0
 25 43  1  0
 25 44  1  0
M  CHG  2  19   1  21  -1
M  END
$$$$
