
     RDKit          3D

 36 36  0  0  0  0  0  0  0  0999 V2000
   -2.6687   -0.8261    1.6939 C   0  0  0  0  0  0  0  0  0  0  0  0
   -2.9442   -0.3826    0.2662 N   0  0  0  0  0  0  0  0  0  0  0  0
   -4.0773   -1.2670   -0.2801 C   0  0  0  0  0  0  0  0  0  0  0  0
   -3.4483    1.0596    0.2606 C   0  0  0  0  0  0  0  0  0  0  0  0
   -1.7206   -0.5817   -0.6684 C   0  0  0  0  0  0  0  0  0  0  0  0
   -0.5726    0.4541   -0.6288 C   0  0  0  0  0  0  0  0  0  0  0  0
   -1.0559    1.7549   -0.9905 O   0  0  0  0  0  0  0  0  0  0  0  0
    0.2082    0.5374    0.6834 C   0  0  0  0  0  0  0  0  0  0  0  0
    1.3667    1.3571    0.4975 O   0  0  0  0  0  0  0  0  0  0  0  0
    2.5515    0.7777    0.1371 C   0  0  0  0  0  0  0  0  0  0  0  0
    2.7396   -0.5617   -0.1998 C   0  0  0  0  0  0  0  0  0  0  0  0
    4.0116   -1.0098   -0.5599 C   0  0  0  0  0  0  0  0  0  0  0  0
    4.1293   -2.3344   -0.8825 O   0  0  0  0  0  0  0  0  0  0  0  0
    5.1031   -0.1379   -0.5896 C   0  0  0  0  0  0  0  0  0  0  0  0
    6.6640   -0.7096   -1.0369 Cl  0  0  0  0  0  0  0  0  0  0  0  0
    4.9259    1.1997   -0.2609 C   0  0  0  0  0  0  0  0  0  0  0  0
    3.6550    1.6434    0.0958 C   0  0  0  0  0  0  0  0  0  0  0  0
    3.4925    2.9392    0.4029 F   0  0  0  0  0  0  0  0  0  0  0  0
   -3.6094   -0.8029    2.2530 H   0  0  0  0  0  0  0  0  0  0  0  0
   -1.9596   -0.1405    2.1560 H   0  0  0  0  0  0  0  0  0  0  0  0
   -2.2661   -1.8427    1.6712 H   0  0  0  0  0  0  0  0  0  0  0  0
   -3.7241   -2.3024   -0.2987 H   0  0  0  0  0  0  0  0  0  0  0  0
   -4.3295   -0.9261   -1.2888 H   0  0  0  0  0  0  0  0  0  0  0  0
   -4.9454   -1.1705    0.3792 H   0  0  0  0  0  0  0  0  0  0  0  0
   -3.5973    1.3737   -0.7761 H   0  0  0  0  0  0  0  0  0  0  0  0
   -2.7252    1.6906    0.7821 H   0  0  0  0  0  0  0  0  0  0  0  0
   -4.4003    1.0897    0.8004 H   0  0  0  0  0  0  0  0  0  0  0  0
   -1.3361   -1.5895   -0.4721 H   0  0  0  0  0  0  0  0  0  0  0  0
   -2.1327   -0.5672   -1.6854 H   0  0  0  0  0  0  0  0  0  0  0  0
    0.1220    0.1758   -1.4306 H   0  0  0  0  0  0  0  0  0  0  0  0
   -0.2789    2.3536   -0.9877 H   0  0  0  0  0  0  0  0  0  0  0  0
    0.4508   -0.4416    1.1086 H   0  0  0  0  0  0  0  0  0  0  0  0
   -0.3858    1.0752    1.4279 H   0  0  0  0  0  0  0  0  0  0  0  0
    1.9363   -1.2875   -0.2024 H   0  0  0  0  0  0  0  0  0  0  0  0
    5.0685   -2.5021   -1.0987 H   0  0  0  0  0  0  0  0  0  0  0  0
    5.7532    1.9021   -0.2779 H   0  0  0  0  0  0  0  0  0  0  0  0
  1  2  1  0
  2  3  1  0
  2  4  1  0
  2  5  1  0
  5  6  1  0
  6  7  1  0
  6  8  1  0
  8  9  1  0
  9 10  1  0
 10 11  2  0
 11 12  1  0
 12 13  1  0
 12 14  2  0
 14 15  1  0
 14 16  1  0
 16 17  2  0
 17 18  1  0
 17 10  1  0
  1 19  1  0
  1 20  1  0
  1 21  1  0
  3 22  1  0
  3 23  1  0
  3 24  1  0
  4 25  1  0
  4 26  1  0
  4 27  1  0
  5 28  1  0
  5 29  1  0
  6 30  1  0
  7 31  1  0
  8 32  1  0
  8 33  1  0
 11 34  1  0
 13 35  1  0
 16 36  1  0
M  CHG  1   2   1
M  END
$$$$
