
     RDKit          3D

 36 38  0  0  0  0  0  0  0  0999 V2000
    2.1594   -2.7660   -0.4941 C   0  0  0  0  0  0  0  0  0  0  0  0
    1.2208   -1.6231   -0.3272 C   0  0  0  0  0  0  0  0  0  0  0  0
   -0.2000   -1.7031   -0.3845 C   0  0  0  0  0  0  0  0  0  0  0  0
   -0.7253   -0.4367   -0.2036 C   0  0  0  0  0  0  0  0  0  0  0  0
   -2.1145    0.0196   -0.1602 C   0  0  0  0  0  0  0  0  0  0  0  0
   -2.4824    1.2770   -0.6682 C   0  0  0  0  0  0  0  0  0  0  0  0
   -3.8148    1.7120   -0.6345 C   0  0  0  0  0  0  0  0  0  0  0  0
   -4.7983    0.8924   -0.0874 C   0  0  0  0  0  0  0  0  0  0  0  0
   -6.0988    1.3002   -0.0798 O   0  0  0  0  0  0  0  0  0  0  0  0
   -4.4324   -0.3521    0.4218 C   0  0  0  0  0  0  0  0  0  0  0  0
   -5.4284   -1.2205    1.0114 N   0  0  0  0  0  0  0  0  0  0  0  0
   -5.6071   -2.3184    0.4643 O   0  0  0  0  0  0  0  0  0  0  0  0
   -5.9837   -0.8324    2.0484 O   0  0  0  0  0  0  0  0  0  0  0  0
   -3.1068   -0.8021    0.3852 C   0  0  0  0  0  0  0  0  0  0  0  0
    0.3521    0.4012   -0.0259 N   0  0  0  0  0  0  0  0  0  0  0  0
    1.5402   -0.2922   -0.0976 C   0  0  0  0  0  0  0  0  0  0  0  0
    2.8306    0.3700    0.0762 C   0  0  0  0  0  0  0  0  0  0  0  0
    3.1681    1.4836   -0.7073 C   0  0  0  0  0  0  0  0  0  0  0  0
    4.4016    2.1172   -0.5409 C   0  0  0  0  0  0  0  0  0  0  0  0
    5.2985    1.6391    0.4092 C   0  0  0  0  0  0  0  0  0  0  0  0
    6.4769    2.2631    0.5525 F   0  0  0  0  0  0  0  0  0  0  0  0
    4.9763    0.5343    1.1936 C   0  0  0  0  0  0  0  0  0  0  0  0
    6.0831   -0.0583    2.3717 Cl  0  0  0  0  0  0  0  0  0  0  0  0
    3.7443   -0.1009    1.0290 C   0  0  0  0  0  0  0  0  0  0  0  0
    3.0134   -2.4837   -1.1181 H   0  0  0  0  0  0  0  0  0  0  0  0
    2.5322   -3.0977    0.4800 H   0  0  0  0  0  0  0  0  0  0  0  0
    1.6622   -3.6149   -0.9746 H   0  0  0  0  0  0  0  0  0  0  0  0
   -0.7776   -2.6039   -0.5547 H   0  0  0  0  0  0  0  0  0  0  0  0
   -1.7379    1.9265   -1.1242 H   0  0  0  0  0  0  0  0  0  0  0  0
   -4.0610    2.6846   -1.0519 H   0  0  0  0  0  0  0  0  0  0  0  0
   -6.1672    2.2072   -0.4233 H   0  0  0  0  0  0  0  0  0  0  0  0
   -2.8536   -1.7794    0.7910 H   0  0  0  0  0  0  0  0  0  0  0  0
    0.2842    1.3882    0.1774 H   0  0  0  0  0  0  0  0  0  0  0  0
    2.4820    1.8521   -1.4670 H   0  0  0  0  0  0  0  0  0  0  0  0
    4.6719    2.9749   -1.1492 H   0  0  0  0  0  0  0  0  0  0  0  0
    3.4918   -0.9575    1.6494 H   0  0  0  0  0  0  0  0  0  0  0  0
  1  2  1  0
  2  3  1  0
  3  4  2  0
  4  5  1  0
  5  6  1  0
  6  7  2  0
  7  8  1  0
  8  9  1  0
  8 10  2  0
 10 11  1  0
 11 12  2  0
 11 13  1  0
 10 14  1  0
  4 15  1  0
 15 16  1  0
 16 17  1  0
 17 18  1  0
 18 19  2  0
 19 20  1  0
 20 21  1  0
 20 22  2  0
 22 23  1  0
 22 24  1  0
 16  2  2  0
 24 17  2  0
 14  5  2  0
  1 25  1  0
  1 26  1  0
  1 27  1  0
  3 28  1  0
  6 29  1  0
  7 30  1  0
  9 31  1  0
 14 32  1  0
 15 33  1  0
 18 34  1  0
 19 35  1  0
 24 36  1  0
M  CHG  2  11   1  13  -1
M  END
$$$$
