
     RDKit          3D

 41 43  0  0  0  0  0  0  0  0999 V2000
    3.7113    1.6447    1.9204 C   0  0  0  0  0  0  0  0  0  0  0  0
    3.0614    1.2787    0.6188 C   0  0  0  0  0  0  0  0  0  0  0  0
    3.2800    2.0556   -0.5247 C   0  0  0  0  0  0  0  0  0  0  0  0
    2.7135    1.6917   -1.7469 C   0  0  0  0  0  0  0  0  0  0  0  0
    1.9199    0.5486   -1.8364 C   0  0  0  0  0  0  0  0  0  0  0  0
    1.6865   -0.2343   -0.7018 C   0  0  0  0  0  0  0  0  0  0  0  0
    0.9000   -1.4583   -0.8257 C   0  0  0  0  0  0  0  0  0  0  0  0
   -0.2545   -1.7753   -0.2183 C   0  0  0  0  0  0  0  0  0  0  0  0
   -0.7576   -3.1880   -0.3941 C   0  0  0  0  0  0  0  0  0  0  0  0
   -0.2894   -4.0396   -1.1274 O   0  0  0  0  0  0  0  0  0  0  0  0
   -1.8227   -3.2926    0.4773 N   0  0  0  0  0  0  0  0  0  0  0  0
   -2.6408   -4.4578    0.6661 C   0  0  0  0  0  0  0  0  0  0  0  0
   -2.0788   -2.0761    1.1203 C   0  0  0  0  0  0  0  0  0  0  0  0
   -3.0784   -1.9062    1.9944 N   0  0  0  0  0  0  0  0  0  0  0  0
   -3.1818   -0.6571    2.4541 C   0  0  0  0  0  0  0  0  0  0  0  0
   -2.4047    0.3833    2.1035 N   0  0  0  0  0  0  0  0  0  0  0  0
   -1.4288    0.1518    1.1897 C   0  0  0  0  0  0  0  0  0  0  0  0
   -0.7401    1.3823    0.8156 C   0  0  0  0  0  0  0  0  0  0  0  0
   -0.8787    2.0809   -0.3289 C   0  0  0  0  0  0  0  0  0  0  0  0
   -0.1963    3.3251   -0.4478 C   0  0  0  0  0  0  0  0  0  0  0  0
    0.3297    4.3528   -0.5721 N   0  0  0  0  0  0  0  0  0  0  0  0
   -1.7428    1.6218   -1.4625 C   0  0  0  0  0  0  0  0  0  0  0  0
   -1.8249    2.4374   -2.5527 N   0  0  0  0  0  0  0  0  0  0  0  0
   -2.3646    0.5654   -1.4634 O   0  0  0  0  0  0  0  0  0  0  0  0
   -1.1766   -1.1059    0.7020 C   0  0  0  0  0  0  0  0  0  0  0  0
    2.2804    0.1195    0.5164 C   0  0  0  0  0  0  0  0  0  0  0  0
    3.8387    2.7293    2.0021 H   0  0  0  0  0  0  0  0  0  0  0  0
    4.6923    1.1659    1.9968 H   0  0  0  0  0  0  0  0  0  0  0  0
    3.0939    1.3263    2.7669 H   0  0  0  0  0  0  0  0  0  0  0  0
    3.8979    2.9502   -0.4719 H   0  0  0  0  0  0  0  0  0  0  0  0
    2.8954    2.2998   -2.6297 H   0  0  0  0  0  0  0  0  0  0  0  0
    1.4916    0.2702   -2.7971 H   0  0  0  0  0  0  0  0  0  0  0  0
    1.3704   -2.1977   -1.4771 H   0  0  0  0  0  0  0  0  0  0  0  0
   -3.6601   -4.2423    0.3321 H   0  0  0  0  0  0  0  0  0  0  0  0
   -2.6473   -4.7313    1.7254 H   0  0  0  0  0  0  0  0  0  0  0  0
   -2.2478   -5.2964    0.0843 H   0  0  0  0  0  0  0  0  0  0  0  0
   -3.9691   -0.4590    3.1738 H   0  0  0  0  0  0  0  0  0  0  0  0
   -0.1324    1.7867    1.6234 H   0  0  0  0  0  0  0  0  0  0  0  0
   -2.4193    2.1284   -3.3122 H   0  0  0  0  0  0  0  0  0  0  0  0
   -1.3676    3.3348   -2.6535 H   0  0  0  0  0  0  0  0  0  0  0  0
    2.1421   -0.5135    1.3911 H   0  0  0  0  0  0  0  0  0  0  0  0
  1  2  1  0
  2  3  2  0
  3  4  1  0
  4  5  2  0
  5  6  1  0
  6  7  1  0
  7  8  2  3
  8  9  1  0
  9 10  2  0
  9 11  1  0
 11 12  1  0
 11 13  1  0
 13 14  2  0
 14 15  1  0
 15 16  2  0
 16 17  1  0
 17 18  1  0
 18 19  2  3
 19 20  1  0
 20 21  3  0
 19 22  1  0
 22 23  1  0
 22 24  2  0
 17 25  2  0
  6 26  2  0
 26  2  1  0
 25  8  1  0
 25 13  1  0
  1 27  1  0
  1 28  1  0
  1 29  1  0
  3 30  1  0
  4 31  1  0
  5 32  1  0
  7 33  1  0
 12 34  1  0
 12 35  1  0
 12 36  1  0
 15 37  1  0
 18 38  1  0
 23 39  1  0
 23 40  1  0
 26 41  1  0
M  END
$$$$
