
     RDKit          3D

 27 28  0  0  0  0  0  0  0  0999 V2000
   -4.1273   -2.3352    1.2870 O   0  0  0  0  0  0  0  0  0  0  0  0
   -3.3209   -1.5061    1.7296 N   0  0  0  0  0  0  0  0  0  0  0  0
   -2.9819   -1.3921    2.9170 O   0  0  0  0  0  0  0  0  0  0  0  0
   -2.6563   -0.6403    0.7781 C   0  0  0  0  0  0  0  0  0  0  0  0
   -1.2612   -0.7274    0.6739 C   0  0  0  0  0  0  0  0  0  0  0  0
   -0.5759    0.0880   -0.2386 C   0  0  0  0  0  0  0  0  0  0  0  0
    0.8893    0.0191   -0.3646 C   0  0  0  0  0  0  0  0  0  0  0  0
    1.4955   -0.2014   -1.6176 C   0  0  0  0  0  0  0  0  0  0  0  0
    2.8857   -0.2670   -1.7473 C   0  0  0  0  0  0  0  0  0  0  0  0
    3.6769   -0.1115   -0.6216 C   0  0  0  0  0  0  0  0  0  0  0  0
    5.0345   -0.1745   -0.7469 O   0  0  0  0  0  0  0  0  0  0  0  0
    3.1021    0.1065    0.6261 C   0  0  0  0  0  0  0  0  0  0  0  0
    3.9429    0.2531    1.6950 O   0  0  0  0  0  0  0  0  0  0  0  0
    1.7184    0.1724    0.7632 C   0  0  0  0  0  0  0  0  0  0  0  0
   -1.3301    0.9767   -1.0285 C   0  0  0  0  0  0  0  0  0  0  0  0
   -2.7245    1.0612   -0.9113 C   0  0  0  0  0  0  0  0  0  0  0  0
   -3.3936    0.2506    0.0010 C   0  0  0  0  0  0  0  0  0  0  0  0
   -4.7450    0.3563    0.1422 O   0  0  0  0  0  0  0  0  0  0  0  0
   -0.7150   -1.4375    1.2929 H   0  0  0  0  0  0  0  0  0  0  0  0
    0.8835   -0.3369   -2.5076 H   0  0  0  0  0  0  0  0  0  0  0  0
    3.3436   -0.4408   -2.7162 H   0  0  0  0  0  0  0  0  0  0  0  0
    5.3715   -0.0424    0.1617 H   0  0  0  0  0  0  0  0  0  0  0  0
    3.4034    0.3939    2.4922 H   0  0  0  0  0  0  0  0  0  0  0  0
    1.2741    0.3543    1.7379 H   0  0  0  0  0  0  0  0  0  0  0  0
   -0.8258    1.6313   -1.7394 H   0  0  0  0  0  0  0  0  0  0  0  0
   -3.2610    1.7731   -1.5328 H   0  0  0  0  0  0  0  0  0  0  0  0
   -5.1031    0.9659   -0.5255 H   0  0  0  0  0  0  0  0  0  0  0  0
  1  2  2  0
  2  3  1  0
  2  4  1  0
  4  5  1  0
  5  6  2  0
  6  7  1  0
  7  8  1  0
  8  9  2  0
  9 10  1  0
 10 11  1  0
 10 12  2  0
 12 13  1  0
 12 14  1  0
  6 15  1  0
 15 16  2  0
 16 17  1  0
 17 18  1  0
 17  4  2  0
 14  7  2  0
  5 19  1  0
  8 20  1  0
  9 21  1  0
 11 22  1  0
 13 23  1  0
 14 24  1  0
 15 25  1  0
 16 26  1  0
 18 27  1  0
M  CHG  2   2   1   3  -1
M  END
$$$$
