
     RDKit          3D

 32 34  0  0  0  0  0  0  0  0999 V2000
   -3.2243    2.9805   -0.8858 O   0  0  0  0  0  0  0  0  0  0  0  0
   -2.7447    2.4154    0.1071 N   0  0  0  0  0  0  0  0  0  0  0  0
   -2.1102    2.9622    1.0188 O   0  0  0  0  0  0  0  0  0  0  0  0
   -3.0137    1.0010    0.2463 C   0  0  0  0  0  0  0  0  0  0  0  0
   -4.2858    0.6407    0.7191 C   0  0  0  0  0  0  0  0  0  0  0  0
   -4.5839   -0.7068    0.9111 C   0  0  0  0  0  0  0  0  0  0  0  0
   -3.6122   -1.6627    0.6297 C   0  0  0  0  0  0  0  0  0  0  0  0
   -3.8581   -2.9928    0.8020 O   0  0  0  0  0  0  0  0  0  0  0  0
   -2.3499   -1.2979    0.1569 C   0  0  0  0  0  0  0  0  0  0  0  0
   -2.0233    0.0519   -0.0477 C   0  0  0  0  0  0  0  0  0  0  0  0
   -0.6971    0.3916   -0.5653 C   0  0  0  0  0  0  0  0  0  0  0  0
   -0.3120    1.1972   -1.6216 C   0  0  0  0  0  0  0  0  0  0  0  0
    1.1041    1.1818   -1.6919 C   0  0  0  0  0  0  0  0  0  0  0  0
    1.5738    0.3634   -0.6811 C   0  0  0  0  0  0  0  0  0  0  0  0
    2.9162   -0.0292   -0.2663 C   0  0  0  0  0  0  0  0  0  0  0  0
    4.0657    0.4453   -0.8853 C   0  0  0  0  0  0  0  0  0  0  0  0
    5.3026    0.0107   -0.4149 C   0  0  0  0  0  0  0  0  0  0  0  0
    5.3521   -0.8784    0.6520 C   0  0  0  0  0  0  0  0  0  0  0  0
    4.1560   -1.2996    1.2087 C   0  0  0  0  0  0  0  0  0  0  0  0
    2.9405   -0.8978    0.7761 N   0  0  0  0  0  0  0  0  0  0  0  0
    0.4626   -0.1041   -0.0142 N   0  0  0  0  0  0  0  0  0  0  0  0
   -5.0325    1.4002    0.9403 H   0  0  0  0  0  0  0  0  0  0  0  0
   -5.5657   -0.9909    1.2781 H   0  0  0  0  0  0  0  0  0  0  0  0
   -4.7699   -3.1116    1.1162 H   0  0  0  0  0  0  0  0  0  0  0  0
   -1.6302   -2.0826   -0.0685 H   0  0  0  0  0  0  0  0  0  0  0  0
   -0.9749    1.7403   -2.2846 H   0  0  0  0  0  0  0  0  0  0  0  0
    1.7089    1.7162   -2.4126 H   0  0  0  0  0  0  0  0  0  0  0  0
    4.0132    1.1402   -1.7153 H   0  0  0  0  0  0  0  0  0  0  0  0
    6.2190    0.3652   -0.8780 H   0  0  0  0  0  0  0  0  0  0  0  0
    6.2996   -1.2341    1.0411 H   0  0  0  0  0  0  0  0  0  0  0  0
    4.1437   -1.9934    2.0444 H   0  0  0  0  0  0  0  0  0  0  0  0
    0.5303   -0.7219    0.7851 H   0  0  0  0  0  0  0  0  0  0  0  0
  1  2  2  0
  2  3  1  0
  2  4  1  0
  4  5  1  0
  5  6  2  0
  6  7  1  0
  7  8  1  0
  7  9  2  0
  9 10  1  0
 10 11  1  0
 11 12  2  0
 12 13  1  0
 13 14  2  0
 14 15  1  0
 15 16  2  0
 16 17  1  0
 17 18  2  0
 18 19  1  0
 19 20  2  0
 14 21  1  0
 10  4  2  0
 21 11  1  0
 20 15  1  0
  5 22  1  0
  6 23  1  0
  8 24  1  0
  9 25  1  0
 12 26  1  0
 13 27  1  0
 16 28  1  0
 17 29  1  0
 18 30  1  0
 19 31  1  0
 21 32  1  0
M  CHG  2   2   1   3  -1
M  END
$$$$
