
     RDKit          3D

 42 45  0  0  0  0  0  0  0  0999 V2000
    4.7283    0.0892   -2.3768 C   0  0  0  0  0  0  0  0  0  0  0  0
    3.9998   -0.3048   -1.1264 C   0  0  0  0  0  0  0  0  0  0  0  0
    4.6997   -0.8155   -0.0275 C   0  0  0  0  0  0  0  0  0  0  0  0
    4.0244   -1.1436    1.1479 C   0  0  0  0  0  0  0  0  0  0  0  0
    2.6453   -0.9516    1.2394 C   0  0  0  0  0  0  0  0  0  0  0  0
    1.9337   -0.4179    0.1598 C   0  0  0  0  0  0  0  0  0  0  0  0
    0.4785   -0.2657    0.2689 C   0  0  0  0  0  0  0  0  0  0  0  0
   -0.2243    0.8757    0.1903 C   0  0  0  0  0  0  0  0  0  0  0  0
    0.3372    2.2692    0.0249 C   0  0  0  0  0  0  0  0  0  0  0  0
    1.4986    2.5941   -0.1270 O   0  0  0  0  0  0  0  0  0  0  0  0
   -0.7683    3.1018    0.0895 N   0  0  0  0  0  0  0  0  0  0  0  0
   -0.7426    4.5350   -0.0053 C   0  0  0  0  0  0  0  0  0  0  0  0
   -1.9520    2.3787    0.2643 C   0  0  0  0  0  0  0  0  0  0  0  0
   -3.1615    2.9412    0.3605 N   0  0  0  0  0  0  0  0  0  0  0  0
   -4.1540    2.0590    0.5187 C   0  0  0  0  0  0  0  0  0  0  0  0
   -4.0264    0.7203    0.5721 N   0  0  0  0  0  0  0  0  0  0  0  0
   -2.7758    0.2046    0.4539 C   0  0  0  0  0  0  0  0  0  0  0  0
   -2.7243   -1.2578    0.4751 C   0  0  0  0  0  0  0  0  0  0  0  0
   -2.4836   -1.9905   -0.6995 C   0  0  0  0  0  0  0  0  0  0  0  0
   -2.4255   -3.3859   -0.6721 C   0  0  0  0  0  0  0  0  0  0  0  0
   -2.6171   -4.0680    0.5274 C   0  0  0  0  0  0  0  0  0  0  0  0
   -2.8739   -3.3582    1.6985 C   0  0  0  0  0  0  0  0  0  0  0  0
   -2.9314   -1.9629    1.6715 C   0  0  0  0  0  0  0  0  0  0  0  0
   -1.6798    1.0218    0.3136 C   0  0  0  0  0  0  0  0  0  0  0  0
    2.6158   -0.1038   -1.0219 C   0  0  0  0  0  0  0  0  0  0  0  0
    4.0938   -0.0505   -3.2583 H   0  0  0  0  0  0  0  0  0  0  0  0
    5.6220   -0.5274   -2.5197 H   0  0  0  0  0  0  0  0  0  0  0  0
    5.0291    1.1397   -2.3192 H   0  0  0  0  0  0  0  0  0  0  0  0
    5.7766   -0.9573   -0.0803 H   0  0  0  0  0  0  0  0  0  0  0  0
    4.5741   -1.5439    1.9955 H   0  0  0  0  0  0  0  0  0  0  0  0
    2.1341   -1.2128    2.1626 H   0  0  0  0  0  0  0  0  0  0  0  0
   -0.0199   -1.2125    0.4551 H   0  0  0  0  0  0  0  0  0  0  0  0
    0.2830    4.8902   -0.1397 H   0  0  0  0  0  0  0  0  0  0  0  0
   -1.3435    4.8528   -0.8626 H   0  0  0  0  0  0  0  0  0  0  0  0
   -1.1503    4.9668    0.9136 H   0  0  0  0  0  0  0  0  0  0  0  0
   -5.1593    2.4572    0.6102 H   0  0  0  0  0  0  0  0  0  0  0  0
   -2.3414   -1.4749   -1.6473 H   0  0  0  0  0  0  0  0  0  0  0  0
   -2.2357   -3.9398   -1.5881 H   0  0  0  0  0  0  0  0  0  0  0  0
   -2.5754   -5.1541    0.5480 H   0  0  0  0  0  0  0  0  0  0  0  0
   -3.0357   -3.8901    2.6326 H   0  0  0  0  0  0  0  0  0  0  0  0
   -3.1440   -1.4219    2.5917 H   0  0  0  0  0  0  0  0  0  0  0  0
    2.0714    0.3139   -1.8660 H   0  0  0  0  0  0  0  0  0  0  0  0
  1  2  1  0
  2  3  2  0
  3  4  1  0
  4  5  2  0
  5  6  1  0
  6  7  1  0
  7  8  2  3
  8  9  1  0
  9 10  2  0
  9 11  1  0
 11 12  1  0
 11 13  1  0
 13 14  2  0
 14 15  1  0
 15 16  2  0
 16 17  1  0
 17 18  1  0
 18 19  2  0
 19 20  1  0
 20 21  2  0
 21 22  1  0
 22 23  2  0
 17 24  2  0
  6 25  2  0
 25  2  1  0
 24  8  1  0
 24 13  1  0
 23 18  1  0
  1 26  1  0
  1 27  1  0
  1 28  1  0
  3 29  1  0
  4 30  1  0
  5 31  1  0
  7 32  1  0
 12 33  1  0
 12 34  1  0
 12 35  1  0
 15 36  1  0
 19 37  1  0
 20 38  1  0
 21 39  1  0
 22 40  1  0
 23 41  1  0
 25 42  1  0
M  END
$$$$
