
     RDKit          3D

 39 41  0  0  0  0  0  0  0  0999 V2000
   -1.6695   -3.4201   -1.3386 C   0  0  0  0  0  0  0  0  0  0  0  0
   -1.9788   -2.2271   -0.5135 C   0  0  0  0  0  0  0  0  0  0  0  0
   -2.7781   -2.0799    0.5982 C   0  0  0  0  0  0  0  0  0  0  0  0
   -2.7252   -0.7165    1.0023 C   0  0  0  0  0  0  0  0  0  0  0  0
   -3.4511   -0.1190    2.1548 C   0  0  0  0  0  0  0  0  0  0  0  0
   -1.8590   -0.0649    0.1327 C   0  0  0  0  0  0  0  0  0  0  0  0
   -1.4615    1.3346    0.0648 C   0  0  0  0  0  0  0  0  0  0  0  0
   -2.5074    2.1816   -0.0812 N   0  0  0  0  0  0  0  0  0  0  0  0
   -2.2273    3.4565   -0.4063 C   0  0  0  0  0  0  0  0  0  0  0  0
   -1.0080    3.9565   -0.6431 N   0  0  0  0  0  0  0  0  0  0  0  0
   -0.0311    3.0717   -0.4537 C   0  0  0  0  0  0  0  0  0  0  0  0
   -0.1653    1.7656   -0.0182 C   0  0  0  0  0  0  0  0  0  0  0  0
    1.1865    1.1985    0.0361 C   0  0  0  0  0  0  0  0  0  0  0  0
    1.6970    0.1215    0.6708 C   0  0  0  0  0  0  0  0  0  0  0  0
    0.9387   -0.6442    1.6137 C   0  0  0  0  0  0  0  0  0  0  0  0
    0.3876   -1.2561    2.4303 N   0  0  0  0  0  0  0  0  0  0  0  0
    3.0940   -0.3375    0.4927 C   0  0  0  0  0  0  0  0  0  0  0  0
    3.9706    0.0037    1.5193 N   0  0  0  0  0  0  0  0  0  0  0  0
    3.4280   -1.0443   -0.6222 C   0  0  0  0  0  0  0  0  0  0  0  0
    2.4545   -1.3435   -1.6215 C   0  0  0  0  0  0  0  0  0  0  0  0
    1.5925   -1.5243   -2.3787 N   0  0  0  0  0  0  0  0  0  0  0  0
    4.7573   -1.5030   -0.8339 C   0  0  0  0  0  0  0  0  0  0  0  0
    5.8479   -1.8662   -0.9939 N   0  0  0  0  0  0  0  0  0  0  0  0
    2.0810    2.2172   -0.6291 C   0  0  0  0  0  0  0  0  0  0  0  0
    3.2519    2.0949   -0.9270 O   0  0  0  0  0  0  0  0  0  0  0  0
    1.2879    3.3292   -0.7986 N   0  0  0  0  0  0  0  0  0  0  0  0
   -1.4516   -0.9944   -0.8036 N   0  0  0  0  0  0  0  0  0  0  0  0
   -1.8567   -3.2180   -2.3981 H   0  0  0  0  0  0  0  0  0  0  0  0
   -2.2884   -4.2729   -1.0423 H   0  0  0  0  0  0  0  0  0  0  0  0
   -0.6191   -3.7044   -1.2196 H   0  0  0  0  0  0  0  0  0  0  0  0
   -3.3457   -2.8700    1.0744 H   0  0  0  0  0  0  0  0  0  0  0  0
   -2.7720    0.4737    2.7761 H   0  0  0  0  0  0  0  0  0  0  0  0
   -3.8927   -0.8953    2.7880 H   0  0  0  0  0  0  0  0  0  0  0  0
   -4.2579    0.5309    1.8016 H   0  0  0  0  0  0  0  0  0  0  0  0
   -3.0706    4.1315   -0.5101 H   0  0  0  0  0  0  0  0  0  0  0  0
    4.9628   -0.0283    1.2774 H   0  0  0  0  0  0  0  0  0  0  0  0
    3.7491    0.8779    1.9958 H   0  0  0  0  0  0  0  0  0  0  0  0
    1.5852    4.1907   -1.2305 H   0  0  0  0  0  0  0  0  0  0  0  0
   -0.8554   -0.8064   -1.6010 H   0  0  0  0  0  0  0  0  0  0  0  0
  1  2  1  0
  2  3  2  0
  3  4  1  0
  4  5  1  0
  4  6  2  0
  6  7  1  0
  7  8  1  0
  8  9  2  0
  9 10  1  0
 10 11  2  0
 11 12  1  0
 12 13  1  0
 13 14  2  3
 14 15  1  0
 15 16  3  0
 14 17  1  0
 17 18  1  0
 17 19  2  3
 19 20  1  0
 20 21  3  0
 19 22  1  0
 22 23  3  0
 13 24  1  0
 24 25  2  0
 24 26  1  0
  6 27  1  0
 27  2  1  0
 12  7  2  0
 26 11  1  0
  1 28  1  0
  1 29  1  0
  1 30  1  0
  3 31  1  0
  5 32  1  0
  5 33  1  0
  5 34  1  0
  9 35  1  0
 18 36  1  0
 18 37  1  0
 26 38  1  0
 27 39  1  0
M  END
$$$$
