
     RDKit          3D

 47 49  0  0  0  0  0  0  0  0999 V2000
    6.3859    1.5262   -0.8927 C   0  0  0  0  0  0  0  0  0  0  0  0
    5.2735    0.6064   -0.5533 C   0  0  0  0  0  0  0  0  0  0  0  0
    4.9730   -0.6579   -1.0095 C   0  0  0  0  0  0  0  0  0  0  0  0
    3.8014   -1.1067   -0.3337 C   0  0  0  0  0  0  0  0  0  0  0  0
    3.1936   -2.4578   -0.4811 C   0  0  0  0  0  0  0  0  0  0  0  0
    3.3790   -0.0614    0.4841 C   0  0  0  0  0  0  0  0  0  0  0  0
    2.2573    0.0730    1.3946 C   0  0  0  0  0  0  0  0  0  0  0  0
    2.3777    0.6872    2.4541 O   0  0  0  0  0  0  0  0  0  0  0  0
    1.0407   -0.5056    1.0210 N   0  0  0  0  0  0  0  0  0  0  0  0
    0.5339   -0.3341   -0.3496 C   0  0  0  0  0  0  0  0  0  0  0  0
   -0.2928    0.9674   -0.4825 C   0  0  0  0  0  0  0  0  0  0  0  0
   -1.3608    1.0244    0.5446 N   0  0  0  0  0  0  0  0  0  0  0  0
   -2.6463    0.6473    0.1568 C   0  0  0  0  0  0  0  0  0  0  0  0
   -3.3689   -0.3520    0.8319 C   0  0  0  0  0  0  0  0  0  0  0  0
   -4.6652   -0.7396    0.4364 C   0  0  0  0  0  0  0  0  0  0  0  0
   -5.3301   -1.8217    1.2009 C   0  0  0  0  0  0  0  0  0  0  0  0
   -4.8490   -2.4276    2.1405 O   0  0  0  0  0  0  0  0  0  0  0  0
   -6.5671   -2.0960    0.7523 O   0  0  0  0  0  0  0  0  0  0  0  0
   -5.2902   -0.1064   -0.6374 C   0  0  0  0  0  0  0  0  0  0  0  0
   -4.6125    0.9068   -1.2908 C   0  0  0  0  0  0  0  0  0  0  0  0
   -5.2567    1.5941   -2.2820 O   0  0  0  0  0  0  0  0  0  0  0  0
   -3.3095    1.2631   -0.9244 C   0  0  0  0  0  0  0  0  0  0  0  0
   -2.7027    2.2617   -1.6500 O   0  0  0  0  0  0  0  0  0  0  0  0
   -0.8710    0.7993    1.9248 C   0  0  0  0  0  0  0  0  0  0  0  0
   -0.0324   -0.4914    2.0196 C   0  0  0  0  0  0  0  0  0  0  0  0
    4.3279    0.9334    0.3825 N   0  0  0  0  0  0  0  0  0  0  0  0
    5.9974    2.4881   -1.2422 H   0  0  0  0  0  0  0  0  0  0  0  0
    7.0179    1.7045   -0.0168 H   0  0  0  0  0  0  0  0  0  0  0  0
    7.0141    1.1067   -1.6850 H   0  0  0  0  0  0  0  0  0  0  0  0
    5.5526   -1.2183   -1.7332 H   0  0  0  0  0  0  0  0  0  0  0  0
    3.9630   -3.2036   -0.7079 H   0  0  0  0  0  0  0  0  0  0  0  0
    2.6928   -2.7731    0.4393 H   0  0  0  0  0  0  0  0  0  0  0  0
    2.4657   -2.4648   -1.2978 H   0  0  0  0  0  0  0  0  0  0  0  0
   -0.0920   -1.2051   -0.5762 H   0  0  0  0  0  0  0  0  0  0  0  0
    1.3432   -0.3011   -1.0810 H   0  0  0  0  0  0  0  0  0  0  0  0
   -0.6696    1.0281   -1.5076 H   0  0  0  0  0  0  0  0  0  0  0  0
    0.3655    1.8323   -0.3332 H   0  0  0  0  0  0  0  0  0  0  0  0
   -2.9255   -0.8736    1.6757 H   0  0  0  0  0  0  0  0  0  0  0  0
   -6.8799   -2.8149    1.3406 H   0  0  0  0  0  0  0  0  0  0  0  0
   -6.2963   -0.3727   -0.9465 H   0  0  0  0  0  0  0  0  0  0  0  0
   -5.0459    2.5353   -2.1298 H   0  0  0  0  0  0  0  0  0  0  0  0
   -2.9959    2.1383   -2.5704 H   0  0  0  0  0  0  0  0  0  0  0  0
   -1.6891    0.7888    2.6539 H   0  0  0  0  0  0  0  0  0  0  0  0
   -0.2410    1.6569    2.1929 H   0  0  0  0  0  0  0  0  0  0  0  0
    0.3855   -0.5969    3.0267 H   0  0  0  0  0  0  0  0  0  0  0  0
   -0.6543   -1.3731    1.8303 H   0  0  0  0  0  0  0  0  0  0  0  0
    4.3026    1.7863    0.9280 H   0  0  0  0  0  0  0  0  0  0  0  0
  1  2  1  0
  2  3  2  0
  3  4  1  0
  4  5  1  0
  4  6  2  0
  6  7  1  0
  7  8  2  0
  7  9  1  0
  9 10  1  0
 10 11  1  0
 11 12  1  0
 12 13  1  0
 13 14  1  0
 14 15  2  0
 15 16  1  0
 16 17  2  0
 16 18  1  0
 15 19  1  0
 19 20  2  0
 20 21  1  0
 20 22  1  0
 22 23  1  0
 12 24  1  0
 24 25  1  0
  6 26  1  0
 26  2  1  0
 25  9  1  0
 22 13  2  0
  1 27  1  0
  1 28  1  0
  1 29  1  0
  3 30  1  0
  5 31  1  0
  5 32  1  0
  5 33  1  0
 10 34  1  0
 10 35  1  0
 11 36  1  0
 11 37  1  0
 14 38  1  0
 18 39  1  0
 19 40  1  0
 21 41  1  0
 23 42  1  0
 24 43  1  0
 24 44  1  0
 25 45  1  0
 25 46  1  0
 26 47  1  0
M  END
$$$$
