
     RDKit          3D

 38 40  0  0  0  0  0  0  0  0999 V2000
   -3.4978   -2.0422    1.1912 C   0  0  0  0  0  0  0  0  0  0  0  0
   -2.4320   -1.4856    0.3245 C   0  0  0  0  0  0  0  0  0  0  0  0
   -2.0078   -1.8460   -0.9352 C   0  0  0  0  0  0  0  0  0  0  0  0
   -0.9272   -0.9912   -1.3056 C   0  0  0  0  0  0  0  0  0  0  0  0
   -0.2195   -1.0431   -2.6132 C   0  0  0  0  0  0  0  0  0  0  0  0
   -0.7297   -0.1123   -0.2473 C   0  0  0  0  0  0  0  0  0  0  0  0
    0.2059    0.9077   -0.0412 N   0  0  0  0  0  0  0  0  0  0  0  0
    1.5149    0.7919   -0.5253 C   0  0  0  0  0  0  0  0  0  0  0  0
    2.1355    1.7047   -1.0796 O   0  0  0  0  0  0  0  0  0  0  0  0
    2.2257   -0.5189   -0.3389 C   0  0  0  0  0  0  0  0  0  0  0  0
    3.3174   -0.8130   -1.1526 C   0  0  0  0  0  0  0  0  0  0  0  0
    3.9860   -2.0188   -0.9608 C   0  0  0  0  0  0  0  0  0  0  0  0
    3.5536   -2.8844    0.0375 C   0  0  0  0  0  0  0  0  0  0  0  0
    2.4699   -2.5057    0.8135 C   0  0  0  0  0  0  0  0  0  0  0  0
    1.8025   -1.3437    0.6571 N   0  0  0  0  0  0  0  0  0  0  0  0
   -0.2124    2.1507    0.5248 C   0  0  0  0  0  0  0  0  0  0  0  0
   -1.5365    2.5914    0.4279 C   0  0  0  0  0  0  0  0  0  0  0  0
   -1.9074    3.8057    1.0060 C   0  0  0  0  0  0  0  0  0  0  0  0
   -0.9525    4.5623    1.6673 C   0  0  0  0  0  0  0  0  0  0  0  0
    0.3377    4.0710    1.7183 C   0  0  0  0  0  0  0  0  0  0  0  0
    0.7169    2.8954    1.1726 N   0  0  0  0  0  0  0  0  0  0  0  0
   -1.6435   -0.4410    0.7311 N   0  0  0  0  0  0  0  0  0  0  0  0
   -4.2213   -1.2655    1.4589 H   0  0  0  0  0  0  0  0  0  0  0  0
   -3.0700   -2.4504    2.1124 H   0  0  0  0  0  0  0  0  0  0  0  0
   -4.0376   -2.8469    0.6819 H   0  0  0  0  0  0  0  0  0  0  0  0
   -2.4276   -2.6446   -1.5345 H   0  0  0  0  0  0  0  0  0  0  0  0
   -0.9017   -1.3643   -3.4075 H   0  0  0  0  0  0  0  0  0  0  0  0
    0.1726   -0.0621   -2.8976 H   0  0  0  0  0  0  0  0  0  0  0  0
    0.6082   -1.7572   -2.5719 H   0  0  0  0  0  0  0  0  0  0  0  0
    3.6409   -0.1155   -1.9189 H   0  0  0  0  0  0  0  0  0  0  0  0
    4.8391   -2.2764   -1.5822 H   0  0  0  0  0  0  0  0  0  0  0  0
    4.0536   -3.8309    0.2119 H   0  0  0  0  0  0  0  0  0  0  0  0
    2.0997   -3.1476    1.6080 H   0  0  0  0  0  0  0  0  0  0  0  0
   -2.2796    2.0309   -0.1302 H   0  0  0  0  0  0  0  0  0  0  0  0
   -2.9304    4.1613    0.9225 H   0  0  0  0  0  0  0  0  0  0  0  0
   -1.2019    5.5151    2.1198 H   0  0  0  0  0  0  0  0  0  0  0  0
    1.1307    4.6245    2.2128 H   0  0  0  0  0  0  0  0  0  0  0  0
   -1.6744   -0.0056    1.6428 H   0  0  0  0  0  0  0  0  0  0  0  0
  1  2  1  0
  2  3  2  0
  3  4  1  0
  4  5  1  0
  4  6  2  0
  6  7  1  0
  7  8  1  0
  8  9  2  0
  8 10  1  0
 10 11  2  0
 11 12  1  0
 12 13  2  0
 13 14  1  0
 14 15  2  0
  7 16  1  0
 16 17  2  0
 17 18  1  0
 18 19  2  0
 19 20  1  0
 20 21  2  0
  6 22  1  0
 22  2  1  0
 15 10  1  0
 21 16  1  0
  1 23  1  0
  1 24  1  0
  1 25  1  0
  3 26  1  0
  5 27  1  0
  5 28  1  0
  5 29  1  0
 11 30  1  0
 12 31  1  0
 13 32  1  0
 14 33  1  0
 17 34  1  0
 18 35  1  0
 19 36  1  0
 20 37  1  0
 22 38  1  0
M  END
$$$$
