
     RDKit          3D

 37 38  0  0  0  0  0  0  0  0999 V2000
   -4.4644    2.3951    1.2141 N   0  0  0  0  0  0  0  0  0  0  0  0
   -4.9444    1.3692    0.9629 C   0  0  0  0  0  0  0  0  0  0  0  0
   -5.5148    0.1025    0.6491 C   0  0  0  0  0  0  0  0  0  0  0  0
   -6.8855   -0.0947    0.9797 C   0  0  0  0  0  0  0  0  0  0  0  0
   -8.0019   -0.2492    1.2518 N   0  0  0  0  0  0  0  0  0  0  0  0
   -4.7798   -0.8638    0.0553 C   0  0  0  0  0  0  0  0  0  0  0  0
   -5.3470   -2.1392   -0.2628 C   0  0  0  0  0  0  0  0  0  0  0  0
   -5.8284   -3.1675   -0.4990 N   0  0  0  0  0  0  0  0  0  0  0  0
   -3.3635   -0.6924   -0.2862 C   0  0  0  0  0  0  0  0  0  0  0  0
   -3.0727   -0.3193   -1.5827 N   0  0  0  0  0  0  0  0  0  0  0  0
   -2.4376   -0.8858    0.6759 C   0  0  0  0  0  0  0  0  0  0  0  0
   -0.9892   -0.7387    0.4858 C   0  0  0  0  0  0  0  0  0  0  0  0
   -0.3125    0.2841    1.1586 C   0  0  0  0  0  0  0  0  0  0  0  0
    1.0689    0.4627    1.0130 C   0  0  0  0  0  0  0  0  0  0  0  0
    1.7502   -0.4254    0.1698 C   0  0  0  0  0  0  0  0  0  0  0  0
    1.1003   -1.4527   -0.5098 C   0  0  0  0  0  0  0  0  0  0  0  0
    2.1197   -2.1003   -1.2401 C   0  0  0  0  0  0  0  0  0  0  0  0
    3.3179   -1.5413   -1.0596 N   0  0  0  0  0  0  0  0  0  0  0  0
    3.0720   -0.5389   -0.1916 N   0  0  0  0  0  0  0  0  0  0  0  0
    4.1752    0.3008    0.2362 C   0  0  0  0  0  0  0  0  0  0  0  0
    4.4808    1.3800   -0.7888 C   0  0  0  0  0  0  0  0  0  0  0  0
    5.6013    2.2442   -0.3014 C   0  0  0  0  0  0  0  0  0  0  0  0
    6.1157    2.2262    0.8032 O   0  0  0  0  0  0  0  0  0  0  0  0
    6.0088    3.1219   -1.2372 O   0  0  0  0  0  0  0  0  0  0  0  0
   -0.2870   -1.6203   -0.3513 C   0  0  0  0  0  0  0  0  0  0  0  0
   -3.7570    0.2758   -2.0425 H   0  0  0  0  0  0  0  0  0  0  0  0
   -2.1245    0.0391   -1.7045 H   0  0  0  0  0  0  0  0  0  0  0  0
   -2.7214   -1.1643    1.6896 H   0  0  0  0  0  0  0  0  0  0  0  0
   -0.8597    0.9671    1.8073 H   0  0  0  0  0  0  0  0  0  0  0  0
    1.5802    1.2617    1.5405 H   0  0  0  0  0  0  0  0  0  0  0  0
    2.0335   -2.9543   -1.8994 H   0  0  0  0  0  0  0  0  0  0  0  0
    3.9166    0.7317    1.2097 H   0  0  0  0  0  0  0  0  0  0  0  0
    5.0413   -0.3532    0.3963 H   0  0  0  0  0  0  0  0  0  0  0  0
    4.7754    0.9257   -1.7415 H   0  0  0  0  0  0  0  0  0  0  0  0
    3.6017    2.0118   -0.9575 H   0  0  0  0  0  0  0  0  0  0  0  0
    6.7348    3.6235   -0.8094 H   0  0  0  0  0  0  0  0  0  0  0  0
   -0.8029   -2.4216   -0.8743 H   0  0  0  0  0  0  0  0  0  0  0  0
  1  2  3  0
  2  3  1  0
  3  4  1  0
  4  5  3  0
  3  6  2  3
  6  7  1  0
  7  8  3  0
  6  9  1  0
  9 10  1  0
  9 11  2  3
 11 12  1  0
 12 13  2  0
 13 14  1  0
 14 15  2  0
 15 16  1  0
 16 17  1  0
 17 18  2  0
 18 19  1  0
 19 20  1  0
 20 21  1  0
 21 22  1  0
 22 23  2  0
 22 24  1  0
 16 25  2  0
 25 12  1  0
 19 15  1  0
 10 26  1  0
 10 27  1  0
 11 28  1  0
 13 29  1  0
 14 30  1  0
 17 31  1  0
 20 32  1  0
 20 33  1  0
 21 34  1  0
 21 35  1  0
 24 36  1  0
 25 37  1  0
M  END
$$$$
