
     RDKit          3D

 33 35  0  0  0  0  0  0  0  0999 V2000
   -2.1977   -2.4546    1.7480 O   0  0  0  0  0  0  0  0  0  0  0  0
   -2.8777   -2.2217    0.7398 N   0  0  0  0  0  0  0  0  0  0  0  0
   -3.3899   -3.0689   -0.0046 O   0  0  0  0  0  0  0  0  0  0  0  0
   -3.1555   -0.8339    0.4382 C   0  0  0  0  0  0  0  0  0  0  0  0
   -4.4371   -0.3567    0.7553 C   0  0  0  0  0  0  0  0  0  0  0  0
   -4.7388    0.9849    0.5287 C   0  0  0  0  0  0  0  0  0  0  0  0
   -3.7613    1.8189   -0.0068 C   0  0  0  0  0  0  0  0  0  0  0  0
   -4.0094    3.1382   -0.2447 O   0  0  0  0  0  0  0  0  0  0  0  0
   -2.4900    1.3373   -0.3246 C   0  0  0  0  0  0  0  0  0  0  0  0
   -2.1605   -0.0092   -0.1081 C   0  0  0  0  0  0  0  0  0  0  0  0
   -0.8265   -0.4817   -0.4785 C   0  0  0  0  0  0  0  0  0  0  0  0
   -0.4316   -1.5365   -1.2790 C   0  0  0  0  0  0  0  0  0  0  0  0
    0.9838   -1.5603   -1.2989 C   0  0  0  0  0  0  0  0  0  0  0  0
    1.4454   -0.5138   -0.5200 C   0  0  0  0  0  0  0  0  0  0  0  0
    2.8111   -0.1001   -0.1951 C   0  0  0  0  0  0  0  0  0  0  0  0
    3.1388    1.2567   -0.0424 C   0  0  0  0  0  0  0  0  0  0  0  0
    4.4462    1.6423    0.2657 C   0  0  0  0  0  0  0  0  0  0  0  0
    5.4320    0.6740    0.4207 C   0  0  0  0  0  0  0  0  0  0  0  0
    6.6798    1.0672    0.7159 F   0  0  0  0  0  0  0  0  0  0  0  0
    5.1259   -0.6753    0.2691 C   0  0  0  0  0  0  0  0  0  0  0  0
    6.3437   -1.8777    0.4598 Cl  0  0  0  0  0  0  0  0  0  0  0  0
    3.8202   -1.0629   -0.0395 C   0  0  0  0  0  0  0  0  0  0  0  0
    0.3265    0.1221   -0.0258 N   0  0  0  0  0  0  0  0  0  0  0  0
   -5.1886   -1.0196    1.1789 H   0  0  0  0  0  0  0  0  0  0  0  0
   -5.7282    1.3597    0.7743 H   0  0  0  0  0  0  0  0  0  0  0  0
   -4.9332    3.3367   -0.0161 H   0  0  0  0  0  0  0  0  0  0  0  0
   -1.7677    2.0217   -0.7649 H   0  0  0  0  0  0  0  0  0  0  0  0
   -1.0878   -2.2228   -1.8012 H   0  0  0  0  0  0  0  0  0  0  0  0
    1.6009   -2.2683   -1.8381 H   0  0  0  0  0  0  0  0  0  0  0  0
    2.3876    2.0304   -0.1828 H   0  0  0  0  0  0  0  0  0  0  0  0
    4.7033    2.6911    0.3788 H   0  0  0  0  0  0  0  0  0  0  0  0
    3.5882   -2.1201   -0.1469 H   0  0  0  0  0  0  0  0  0  0  0  0
    0.3479    0.9029    0.6156 H   0  0  0  0  0  0  0  0  0  0  0  0
  1  2  2  0
  2  3  1  0
  2  4  1  0
  4  5  1  0
  5  6  2  0
  6  7  1  0
  7  8  1  0
  7  9  2  0
  9 10  1  0
 10 11  1  0
 11 12  2  0
 12 13  1  0
 13 14  2  0
 14 15  1  0
 15 16  1  0
 16 17  2  0
 17 18  1  0
 18 19  1  0
 18 20  2  0
 20 21  1  0
 20 22  1  0
 14 23  1  0
 10  4  2  0
 23 11  1  0
 22 15  2  0
  5 24  1  0
  6 25  1  0
  8 26  1  0
  9 27  1  0
 12 28  1  0
 13 29  1  0
 16 30  1  0
 17 31  1  0
 22 32  1  0
 23 33  1  0
M  CHG  2   2   1   3  -1
M  END
$$$$
