
     RDKit          3D

 39 41  0  0  0  0  0  0  0  0999 V2000
    1.7196    1.3678    0.5970 C   0  0  0  0  0  0  0  0  0  0  0  0
    1.6033   -0.0890    0.4848 N   0  0  0  0  0  0  0  0  0  0  0  0
    2.7436   -0.9200    0.6239 C   0  0  0  0  0  0  0  0  0  0  0  0
    2.7152   -2.1285    0.8729 O   0  0  0  0  0  0  0  0  0  0  0  0
    4.1148   -0.3219    0.4657 C   0  0  0  0  0  0  0  0  0  0  0  0
    5.1822   -0.9015    1.1473 C   0  0  0  0  0  0  0  0  0  0  0  0
    6.4573   -0.3745    0.9622 C   0  0  0  0  0  0  0  0  0  0  0  0
    6.6297    0.7004    0.0977 C   0  0  0  0  0  0  0  0  0  0  0  0
    5.5159    1.2079   -0.5518 C   0  0  0  0  0  0  0  0  0  0  0  0
    4.2645    0.7253   -0.3909 N   0  0  0  0  0  0  0  0  0  0  0  0
    0.3543   -0.7006    0.2585 C   0  0  0  0  0  0  0  0  0  0  0  0
   -0.0337   -2.0233    0.1684 C   0  0  0  0  0  0  0  0  0  0  0  0
   -1.4292   -2.0644   -0.0700 C   0  0  0  0  0  0  0  0  0  0  0  0
   -1.8949   -0.7637   -0.1333 C   0  0  0  0  0  0  0  0  0  0  0  0
   -3.2518   -0.2606   -0.3928 C   0  0  0  0  0  0  0  0  0  0  0  0
   -4.0194   -0.9134   -1.3735 C   0  0  0  0  0  0  0  0  0  0  0  0
   -5.3290   -0.5158   -1.6503 C   0  0  0  0  0  0  0  0  0  0  0  0
   -6.0033   -1.2002   -2.6174 O   0  0  0  0  0  0  0  0  0  0  0  0
   -5.9234    0.5360   -0.9633 C   0  0  0  0  0  0  0  0  0  0  0  0
   -5.1911    1.2035    0.0156 C   0  0  0  0  0  0  0  0  0  0  0  0
   -3.8696    0.8043    0.2866 C   0  0  0  0  0  0  0  0  0  0  0  0
   -3.1743    1.5456    1.3197 N   0  0  0  0  0  0  0  0  0  0  0  0
   -2.2017    2.2306    0.9657 O   0  0  0  0  0  0  0  0  0  0  0  0
   -3.6335    1.4846    2.4673 O   0  0  0  0  0  0  0  0  0  0  0  0
   -0.7868    0.0405    0.0369 N   0  0  0  0  0  0  0  0  0  0  0  0
    2.5955    1.6563    1.1838 H   0  0  0  0  0  0  0  0  0  0  0  0
    0.8542    1.7750    1.1288 H   0  0  0  0  0  0  0  0  0  0  0  0
    1.7715    1.8002   -0.4062 H   0  0  0  0  0  0  0  0  0  0  0  0
    5.0240   -1.7519    1.8037 H   0  0  0  0  0  0  0  0  0  0  0  0
    7.3085   -0.8067    1.4812 H   0  0  0  0  0  0  0  0  0  0  0  0
    7.6118    1.1284   -0.0724 H   0  0  0  0  0  0  0  0  0  0  0  0
    5.6057    2.0416   -1.2430 H   0  0  0  0  0  0  0  0  0  0  0  0
    0.6066   -2.8895    0.2707 H   0  0  0  0  0  0  0  0  0  0  0  0
   -2.0277   -2.9602   -0.1788 H   0  0  0  0  0  0  0  0  0  0  0  0
   -3.5992   -1.7430   -1.9402 H   0  0  0  0  0  0  0  0  0  0  0  0
   -6.9012   -0.8385   -2.7006 H   0  0  0  0  0  0  0  0  0  0  0  0
   -6.9436    0.8433   -1.1732 H   0  0  0  0  0  0  0  0  0  0  0  0
   -5.6480    2.0246    0.5647 H   0  0  0  0  0  0  0  0  0  0  0  0
   -0.8170    1.0511    0.0186 H   0  0  0  0  0  0  0  0  0  0  0  0
  1  2  1  0
  2  3  1  0
  3  4  2  0
  3  5  1  0
  5  6  2  0
  6  7  1  0
  7  8  2  0
  8  9  1  0
  9 10  2  0
  2 11  1  0
 11 12  2  0
 12 13  1  0
 13 14  2  0
 14 15  1  0
 15 16  1  0
 16 17  2  0
 17 18  1  0
 17 19  1  0
 19 20  2  0
 20 21  1  0
 21 22  1  0
 22 23  2  0
 22 24  1  0
 14 25  1  0
 10  5  1  0
 25 11  1  0
 21 15  2  0
  1 26  1  0
  1 27  1  0
  1 28  1  0
  6 29  1  0
  7 30  1  0
  8 31  1  0
  9 32  1  0
 12 33  1  0
 13 34  1  0
 16 35  1  0
 18 36  1  0
 19 37  1  0
 20 38  1  0
 25 39  1  0
M  CHG  2  22   1  24  -1
M  END
$$$$
