
     RDKit          3D

 62 66  0  0  0  0  0  0  0  0999 V2000
   -1.8160   -0.0750   -1.7240 C   0  0  0  0  0  0  0  0  0  0  0  0
   -2.3200    1.2073   -1.2425 N   0  0  0  0  0  0  0  0  0  0  0  0
   -1.3377    2.2928   -1.1032 C   0  0  0  0  0  0  0  0  0  0  0  0
   -0.5940    2.2603    0.2412 C   0  0  0  0  0  0  0  0  0  0  0  0
    0.3077    1.0981    0.3744 N   0  0  0  0  0  0  0  0  0  0  0  0
    1.2130    1.0973   -0.4811 N   0  0  0  0  0  0  0  0  0  0  0  0
    1.9990    0.0404   -0.1797 N   0  0  0  0  0  0  0  0  0  0  0  0
    3.2615    0.0070   -0.7963 C   0  0  0  0  0  0  0  0  0  0  0  0
    3.4252    0.3330   -2.1423 C   0  0  0  0  0  0  0  0  0  0  0  0
    4.6873    0.2780   -2.7421 C   0  0  0  0  0  0  0  0  0  0  0  0
    5.8225   -0.0747   -2.0281 C   0  0  0  0  0  0  0  0  0  0  0  0
    6.9938   -0.0975   -2.6733 N   0  0  0  0  0  0  0  0  0  0  0  0
    8.0724   -0.4331   -1.9588 C   0  0  0  0  0  0  0  0  0  0  0  0
    8.0886   -0.7395   -0.6598 N   0  0  0  0  0  0  0  0  0  0  0  0
    6.8970   -0.7012   -0.0170 C   0  0  0  0  0  0  0  0  0  0  0  0
    7.0083   -0.9908    1.4268 C   0  0  0  0  0  0  0  0  0  0  0  0
    6.5557   -0.0776    2.3996 C   0  0  0  0  0  0  0  0  0  0  0  0
    6.6733   -0.3566    3.7646 C   0  0  0  0  0  0  0  0  0  0  0  0
    7.2701   -1.5461    4.1817 C   0  0  0  0  0  0  0  0  0  0  0  0
    7.7451   -2.4493    3.2319 C   0  0  0  0  0  0  0  0  0  0  0  0
    8.5092   -3.9059    3.7486 Cl  0  0  0  0  0  0  0  0  0  0  0  0
    7.6176   -2.1790    1.8690 C   0  0  0  0  0  0  0  0  0  0  0  0
    5.6885   -0.3918   -0.6698 C   0  0  0  0  0  0  0  0  0  0  0  0
    4.3927   -0.3854   -0.0776 C   0  0  0  0  0  0  0  0  0  0  0  0
   -3.5798    1.3398   -0.7338 C   0  0  0  0  0  0  0  0  0  0  0  0
   -4.2675    2.4214   -0.2267 C   0  0  0  0  0  0  0  0  0  0  0  0
   -5.5517    1.9785    0.1784 C   0  0  0  0  0  0  0  0  0  0  0  0
   -5.6613    0.6424   -0.1456 C   0  0  0  0  0  0  0  0  0  0  0  0
   -6.6701   -0.2670    0.0146 N   0  0  0  0  0  0  0  0  0  0  0  0
   -6.9412   -1.2430   -1.0669 C   0  0  0  0  0  0  0  0  0  0  0  0
   -7.7806   -2.4077   -0.5234 C   0  0  0  0  0  0  0  0  0  0  0  0
   -9.0059   -1.9470    0.0664 O   0  0  0  0  0  0  0  0  0  0  0  0
   -8.7219   -1.0430    1.1482 C   0  0  0  0  0  0  0  0  0  0  0  0
   -7.9190    0.1783    0.6752 C   0  0  0  0  0  0  0  0  0  0  0  0
   -4.4385    0.2702   -0.6491 N   0  0  0  0  0  0  0  0  0  0  0  0
   -1.7884   -0.8144   -0.9175 H   0  0  0  0  0  0  0  0  0  0  0  0
   -2.4451   -0.4551   -2.5350 H   0  0  0  0  0  0  0  0  0  0  0  0
   -0.8048    0.0115   -2.1328 H   0  0  0  0  0  0  0  0  0  0  0  0
   -0.6237    2.2503   -1.9365 H   0  0  0  0  0  0  0  0  0  0  0  0
   -1.8333    3.2662   -1.2111 H   0  0  0  0  0  0  0  0  0  0  0  0
   -1.3054    2.2354    1.0743 H   0  0  0  0  0  0  0  0  0  0  0  0
   -0.0032    3.1837    0.3521 H   0  0  0  0  0  0  0  0  0  0  0  0
    1.9870   -0.1938    0.8079 H   0  0  0  0  0  0  0  0  0  0  0  0
    2.5647    0.6141   -2.7463 H   0  0  0  0  0  0  0  0  0  0  0  0
    4.7814    0.5207   -3.7989 H   0  0  0  0  0  0  0  0  0  0  0  0
    9.0222   -0.4557   -2.4820 H   0  0  0  0  0  0  0  0  0  0  0  0
    6.1148    0.8723    2.0932 H   0  0  0  0  0  0  0  0  0  0  0  0
    6.3124    0.3602    4.5007 H   0  0  0  0  0  0  0  0  0  0  0  0
    7.3737   -1.7588    5.2428 H   0  0  0  0  0  0  0  0  0  0  0  0
    8.0057   -2.8888    1.1387 H   0  0  0  0  0  0  0  0  0  0  0  0
    4.2769   -0.6744    0.9633 H   0  0  0  0  0  0  0  0  0  0  0  0
   -3.8928    3.4299   -0.1330 H   0  0  0  0  0  0  0  0  0  0  0  0
   -6.3216    2.5891    0.6299 H   0  0  0  0  0  0  0  0  0  0  0  0
   -6.0184   -1.6504   -1.4941 H   0  0  0  0  0  0  0  0  0  0  0  0
   -7.4910   -0.7339   -1.8694 H   0  0  0  0  0  0  0  0  0  0  0  0
   -7.2180   -2.9778    0.2263 H   0  0  0  0  0  0  0  0  0  0  0  0
   -8.0376   -3.0944   -1.3380 H   0  0  0  0  0  0  0  0  0  0  0  0
   -9.6787   -0.7191    1.5704 H   0  0  0  0  0  0  0  0  0  0  0  0
   -8.1747   -1.5814    1.9311 H   0  0  0  0  0  0  0  0  0  0  0  0
   -8.5160    0.7628   -0.0376 H   0  0  0  0  0  0  0  0  0  0  0  0
   -7.7040    0.8066    1.5483 H   0  0  0  0  0  0  0  0  0  0  0  0
   -4.2058   -0.6665   -0.9262 H   0  0  0  0  0  0  0  0  0  0  0  0
  1  2  1  0
  2  3  1  0
  3  4  1  0
  4  5  1  0
  5  6  2  0
  6  7  1  0
  7  8  1  0
  8  9  1  0
  9 10  2  0
 10 11  1  0
 11 12  2  0
 12 13  1  0
 13 14  2  0
 14 15  1  0
 15 16  1  0
 16 17  2  0
 17 18  1  0
 18 19  2  0
 19 20  1  0
 20 21  1  0
 20 22  2  0
 15 23  2  0
 23 24  1  0
  2 25  1  0
 25 26  2  0
 26 27  1  0
 27 28  2  0
 28 29  1  0
 29 30  1  0
 30 31  1  0
 31 32  1  0
 32 33  1  0
 33 34  1  0
 28 35  1  0
 24  8  2  0
 35 25  1  0
 23 11  1  0
 34 29  1  0
 22 16  1  0
  1 36  1  0
  1 37  1  0
  1 38  1  0
  3 39  1  0
  3 40  1  0
  4 41  1  0
  4 42  1  0
  7 43  1  0
  9 44  1  0
 10 45  1  0
 13 46  1  0
 17 47  1  0
 18 48  1  0
 19 49  1  0
 22 50  1  0
 24 51  1  0
 26 52  1  0
 27 53  1  0
 30 54  1  0
 30 55  1  0
 31 56  1  0
 31 57  1  0
 33 58  1  0
 33 59  1  0
 34 60  1  0
 34 61  1  0
 35 62  1  0
M  END
$$$$
