
     RDKit          3D

 35 36  0  0  0  0  0  0  0  0999 V2000
   -0.3284   -2.6426   -0.3445 C   0  0  0  0  0  0  0  0  0  0  0  0
   -0.3999   -1.2873   -1.0372 C   0  0  0  0  0  0  0  0  0  0  0  0
    0.0246   -0.1906   -0.1482 N   0  0  0  0  0  0  0  0  0  0  0  0
   -0.8554    0.2678    0.8622 C   0  0  0  0  0  0  0  0  0  0  0  0
   -0.5064    0.6031    1.9973 O   0  0  0  0  0  0  0  0  0  0  0  0
   -2.3283    0.3122    0.5834 C   0  0  0  0  0  0  0  0  0  0  0  0
   -3.2182    0.1043    1.6339 C   0  0  0  0  0  0  0  0  0  0  0  0
   -4.5831    0.1997    1.3785 C   0  0  0  0  0  0  0  0  0  0  0  0
   -5.0141    0.5125    0.0941 C   0  0  0  0  0  0  0  0  0  0  0  0
   -4.0595    0.7198   -0.8888 C   0  0  0  0  0  0  0  0  0  0  0  0
   -2.7288    0.6280   -0.6774 N   0  0  0  0  0  0  0  0  0  0  0  0
    1.3778    0.2080   -0.0673 C   0  0  0  0  0  0  0  0  0  0  0  0
    2.3788   -0.5485   -0.6415 N   0  0  0  0  0  0  0  0  0  0  0  0
    3.6116    0.0075   -0.4218 C   0  0  0  0  0  0  0  0  0  0  0  0
    4.8582   -0.6355   -0.8993 C   0  0  0  0  0  0  0  0  0  0  0  0
    3.4036    1.1793    0.2653 C   0  0  0  0  0  0  0  0  0  0  0  0
    1.9993    1.3325    0.4720 C   0  0  0  0  0  0  0  0  0  0  0  0
    1.3917    2.5312    1.1146 C   0  0  0  0  0  0  0  0  0  0  0  0
    0.6853   -2.8634    0.0037 H   0  0  0  0  0  0  0  0  0  0  0  0
   -0.9929   -2.6760    0.5250 H   0  0  0  0  0  0  0  0  0  0  0  0
   -0.6316   -3.4362   -1.0344 H   0  0  0  0  0  0  0  0  0  0  0  0
   -1.4208   -1.1418   -1.3893 H   0  0  0  0  0  0  0  0  0  0  0  0
    0.2220   -1.2827   -1.9395 H   0  0  0  0  0  0  0  0  0  0  0  0
   -2.8540   -0.1177    2.6323 H   0  0  0  0  0  0  0  0  0  0  0  0
   -5.3018    0.0432    2.1782 H   0  0  0  0  0  0  0  0  0  0  0  0
   -6.0708    0.6022   -0.1341 H   0  0  0  0  0  0  0  0  0  0  0  0
   -4.3504    0.9764   -1.9039 H   0  0  0  0  0  0  0  0  0  0  0  0
    2.2341   -1.4266   -1.1141 H   0  0  0  0  0  0  0  0  0  0  0  0
    4.8486   -0.7307   -1.9898 H   0  0  0  0  0  0  0  0  0  0  0  0
    4.9670   -1.6344   -0.4649 H   0  0  0  0  0  0  0  0  0  0  0  0
    5.7369   -0.0462   -0.6182 H   0  0  0  0  0  0  0  0  0  0  0  0
    4.1748    1.8730    0.5765 H   0  0  0  0  0  0  0  0  0  0  0  0
    0.4100    2.7617    0.6905 H   0  0  0  0  0  0  0  0  0  0  0  0
    2.0229    3.4126    0.9550 H   0  0  0  0  0  0  0  0  0  0  0  0
    1.2971    2.3849    2.1947 H   0  0  0  0  0  0  0  0  0  0  0  0
  1  2  1  0
  2  3  1  0
  3  4  1  0
  4  5  2  0
  4  6  1  0
  6  7  2  0
  7  8  1  0
  8  9  2  0
  9 10  1  0
 10 11  2  0
  3 12  1  0
 12 13  1  0
 13 14  1  0
 14 15  1  0
 14 16  2  0
 16 17  1  0
 17 18  1  0
 11  6  1  0
 17 12  2  0
  1 19  1  0
  1 20  1  0
  1 21  1  0
  2 22  1  0
  2 23  1  0
  7 24  1  0
  8 25  1  0
  9 26  1  0
 10 27  1  0
 13 28  1  0
 15 29  1  0
 15 30  1  0
 15 31  1  0
 16 32  1  0
 18 33  1  0
 18 34  1  0
 18 35  1  0
M  END
$$$$
