
     RDKit          3D

 31 31  0  0  0  0  0  0  0  0999 V2000
   -1.0926    0.3935   -3.3206 N   0  0  0  0  0  0  0  0  0  0  0  0
   -0.7953    0.1556   -2.2245 C   0  0  0  0  0  0  0  0  0  0  0  0
   -0.4158   -0.1905   -0.8900 C   0  0  0  0  0  0  0  0  0  0  0  0
   -1.2088    0.0165    0.1789 C   0  0  0  0  0  0  0  0  0  0  0  0
   -2.5442    0.6189    0.1953 C   0  0  0  0  0  0  0  0  0  0  0  0
   -3.5794    0.2100   -0.6393 C   0  0  0  0  0  0  0  0  0  0  0  0
   -4.8210    0.8304   -0.5182 C   0  0  0  0  0  0  0  0  0  0  0  0
   -4.9963    1.8244    0.4361 C   0  0  0  0  0  0  0  0  0  0  0  0
   -3.9186    2.1528    1.2393 C   0  0  0  0  0  0  0  0  0  0  0  0
   -2.7051    1.5658    1.1451 N   0  0  0  0  0  0  0  0  0  0  0  0
    0.9174   -0.7853   -0.7125 C   0  0  0  0  0  0  0  0  0  0  0  0
    0.9610   -2.1794   -0.7359 N   0  0  0  0  0  0  0  0  0  0  0  0
    2.0132   -0.0075   -0.5029 C   0  0  0  0  0  0  0  0  0  0  0  0
    1.9496    1.4241   -0.4892 C   0  0  0  0  0  0  0  0  0  0  0  0
    1.9380    2.5836   -0.4925 N   0  0  0  0  0  0  0  0  0  0  0  0
    3.3455   -0.5945   -0.2474 C   0  0  0  0  0  0  0  0  0  0  0  0
    4.1426   -0.7548   -1.3808 N   0  0  0  0  0  0  0  0  0  0  0  0
    3.6912   -0.9843    1.0094 C   0  0  0  0  0  0  0  0  0  0  0  0
    4.9576   -1.5828    1.2604 C   0  0  0  0  0  0  0  0  0  0  0  0
    6.0032   -2.0572    1.4291 N   0  0  0  0  0  0  0  0  0  0  0  0
    2.8147   -0.8239    2.1226 C   0  0  0  0  0  0  0  0  0  0  0  0
    2.0894   -0.6798    3.0166 N   0  0  0  0  0  0  0  0  0  0  0  0
   -0.8455   -0.2265    1.1772 H   0  0  0  0  0  0  0  0  0  0  0  0
   -3.4452   -0.5787   -1.3715 H   0  0  0  0  0  0  0  0  0  0  0  0
   -5.6447    0.5377   -1.1634 H   0  0  0  0  0  0  0  0  0  0  0  0
   -5.9493    2.3279    0.5541 H   0  0  0  0  0  0  0  0  0  0  0  0
   -4.0031    2.9191    2.0048 H   0  0  0  0  0  0  0  0  0  0  0  0
    0.1763   -2.6111   -1.2242 H   0  0  0  0  0  0  0  0  0  0  0  0
    1.8478   -2.5515   -1.0803 H   0  0  0  0  0  0  0  0  0  0  0  0
    3.9746   -0.0758   -2.1253 H   0  0  0  0  0  0  0  0  0  0  0  0
    5.1430   -0.8769   -1.2128 H   0  0  0  0  0  0  0  0  0  0  0  0
  1  2  3  0
  2  3  1  0
  3  4  2  3
  4  5  1  0
  5  6  2  0
  6  7  1  0
  7  8  2  0
  8  9  1  0
  9 10  2  0
  3 11  1  0
 11 12  1  0
 11 13  2  3
 13 14  1  0
 14 15  3  0
 13 16  1  0
 16 17  1  0
 16 18  2  3
 18 19  1  0
 19 20  3  0
 18 21  1  0
 21 22  3  0
 10  5  1  0
  4 23  1  0
  6 24  1  0
  7 25  1  0
  8 26  1  0
  9 27  1  0
 12 28  1  0
 12 29  1  0
 17 30  1  0
 17 31  1  0
M  END
$$$$
