
     RDKit          3D

 53 56  0  0  0  0  0  0  0  0999 V2000
   -3.1983    1.7546   -0.5807 C   0  0  0  0  0  0  0  0  0  0  0  0
   -3.8667    1.5700    0.7078 N   0  0  0  0  0  0  0  0  0  0  0  0
   -3.2927    2.3240    1.8415 C   0  0  0  0  0  0  0  0  0  0  0  0
   -2.1521    1.5838    2.5529 C   0  0  0  0  0  0  0  0  0  0  0  0
   -0.9136    1.6630    1.7547 N   0  0  0  0  0  0  0  0  0  0  0  0
   -0.6047    0.5644    1.2598 N   0  0  0  0  0  0  0  0  0  0  0  0
    0.5173    0.7839    0.5514 N   0  0  0  0  0  0  0  0  0  0  0  0
    1.2696   -0.3174    0.1118 C   0  0  0  0  0  0  0  0  0  0  0  0
    0.7421   -1.6061    0.0341 C   0  0  0  0  0  0  0  0  0  0  0  0
    1.5012   -2.6611   -0.4869 C   0  0  0  0  0  0  0  0  0  0  0  0
    2.7914   -2.4738   -0.9600 C   0  0  0  0  0  0  0  0  0  0  0  0
    3.4504   -3.5258   -1.4571 N   0  0  0  0  0  0  0  0  0  0  0  0
    4.6849   -3.3038   -1.9229 C   0  0  0  0  0  0  0  0  0  0  0  0
    5.3246   -2.1319   -1.9293 N   0  0  0  0  0  0  0  0  0  0  0  0
    4.6497   -1.0835   -1.4083 C   0  0  0  0  0  0  0  0  0  0  0  0
    5.4215    0.1692   -1.4135 C   0  0  0  0  0  0  0  0  0  0  0  0
    5.8534    0.7631   -0.2136 C   0  0  0  0  0  0  0  0  0  0  0  0
    6.5898    1.9506   -0.2243 C   0  0  0  0  0  0  0  0  0  0  0  0
    6.9117    2.5577   -1.4369 C   0  0  0  0  0  0  0  0  0  0  0  0
    6.5021    1.9718   -2.6327 C   0  0  0  0  0  0  0  0  0  0  0  0
    6.9060    2.7179   -4.1294 Cl  0  0  0  0  0  0  0  0  0  0  0  0
    5.7668    0.7866   -2.6266 C   0  0  0  0  0  0  0  0  0  0  0  0
    3.3401   -1.1870   -0.9064 C   0  0  0  0  0  0  0  0  0  0  0  0
    2.5610   -0.1156   -0.3878 C   0  0  0  0  0  0  0  0  0  0  0  0
   -4.6427    0.4286    0.9289 C   0  0  0  0  0  0  0  0  0  0  0  0
   -4.8638   -0.5325   -0.0817 C   0  0  0  0  0  0  0  0  0  0  0  0
   -5.6413   -1.6840    0.1217 C   0  0  0  0  0  0  0  0  0  0  0  0
   -6.2291   -1.8912    1.3561 C   0  0  0  0  0  0  0  0  0  0  0  0
   -6.9946   -2.9903    1.6236 O   0  0  0  0  0  0  0  0  0  0  0  0
   -6.0473   -0.9602    2.3666 C   0  0  0  0  0  0  0  0  0  0  0  0
   -6.6296   -1.1591    3.5879 O   0  0  0  0  0  0  0  0  0  0  0  0
   -5.2753    0.1813    2.1616 C   0  0  0  0  0  0  0  0  0  0  0  0
   -2.4826    0.9499   -0.7784 H   0  0  0  0  0  0  0  0  0  0  0  0
   -3.9306    1.7961   -1.3947 H   0  0  0  0  0  0  0  0  0  0  0  0
   -2.6483    2.7017   -0.6155 H   0  0  0  0  0  0  0  0  0  0  0  0
   -4.0772    2.5807    2.5614 H   0  0  0  0  0  0  0  0  0  0  0  0
   -2.9247    3.2948    1.4846 H   0  0  0  0  0  0  0  0  0  0  0  0
   -2.4218    0.5474    2.7896 H   0  0  0  0  0  0  0  0  0  0  0  0
   -1.9526    2.0850    3.5068 H   0  0  0  0  0  0  0  0  0  0  0  0
    1.0430    1.6038    0.8333 H   0  0  0  0  0  0  0  0  0  0  0  0
   -0.2724   -1.8088    0.3711 H   0  0  0  0  0  0  0  0  0  0  0  0
    1.0624   -3.6558   -0.5321 H   0  0  0  0  0  0  0  0  0  0  0  0
    5.2153   -4.1565   -2.3326 H   0  0  0  0  0  0  0  0  0  0  0  0
    5.6268    0.2902    0.7416 H   0  0  0  0  0  0  0  0  0  0  0  0
    6.9198    2.3951    0.7117 H   0  0  0  0  0  0  0  0  0  0  0  0
    7.4878    3.4794   -1.4441 H   0  0  0  0  0  0  0  0  0  0  0  0
    5.4626    0.3327   -3.5677 H   0  0  0  0  0  0  0  0  0  0  0  0
    2.9706    0.8920   -0.3852 H   0  0  0  0  0  0  0  0  0  0  0  0
   -4.4207   -0.4125   -1.0662 H   0  0  0  0  0  0  0  0  0  0  0  0
   -5.7660   -2.3885   -0.6929 H   0  0  0  0  0  0  0  0  0  0  0  0
   -7.0129   -3.5434    0.8237 H   0  0  0  0  0  0  0  0  0  0  0  0
   -7.1151   -2.0020    3.4906 H   0  0  0  0  0  0  0  0  0  0  0  0
   -5.1949    0.8714    2.9930 H   0  0  0  0  0  0  0  0  0  0  0  0
  1  2  1  0
  2  3  1  0
  3  4  1  0
  4  5  1  0
  5  6  2  0
  6  7  1  0
  7  8  1  0
  8  9  1  0
  9 10  2  0
 10 11  1  0
 11 12  2  0
 12 13  1  0
 13 14  2  0
 14 15  1  0
 15 16  1  0
 16 17  2  0
 17 18  1  0
 18 19  2  0
 19 20  1  0
 20 21  1  0
 20 22  2  0
 15 23  2  0
 23 24  1  0
  2 25  1  0
 25 26  1  0
 26 27  2  0
 27 28  1  0
 28 29  1  0
 28 30  2  0
 30 31  1  0
 30 32  1  0
 24  8  2  0
 32 25  2  0
 23 11  1  0
 22 16  1  0
  1 33  1  0
  1 34  1  0
  1 35  1  0
  3 36  1  0
  3 37  1  0
  4 38  1  0
  4 39  1  0
  7 40  1  0
  9 41  1  0
 10 42  1  0
 13 43  1  0
 17 44  1  0
 18 45  1  0
 19 46  1  0
 22 47  1  0
 24 48  1  0
 26 49  1  0
 27 50  1  0
 29 51  1  0
 31 52  1  0
 32 53  1  0
M  END
$$$$
