
     RDKit          3D

 25 26  0  0  0  0  0  0  0  0999 V2000
   -0.1110    2.8331    0.9189 O   0  0  0  0  0  0  0  0  0  0  0  0
   -0.6042    2.3513   -0.1090 N   0  0  0  0  0  0  0  0  0  0  0  0
   -0.6330    2.8876   -1.2251 O   0  0  0  0  0  0  0  0  0  0  0  0
   -1.2611    1.0666    0.0137 C   0  0  0  0  0  0  0  0  0  0  0  0
   -2.6615    1.0701    0.1046 C   0  0  0  0  0  0  0  0  0  0  0  0
   -3.3350   -0.1413    0.2475 C   0  0  0  0  0  0  0  0  0  0  0  0
   -2.6020   -1.3237    0.2966 C   0  0  0  0  0  0  0  0  0  0  0  0
   -3.2177   -2.5320    0.4367 O   0  0  0  0  0  0  0  0  0  0  0  0
   -1.2090   -1.3187    0.2018 C   0  0  0  0  0  0  0  0  0  0  0  0
   -0.5001   -0.1144    0.0533 C   0  0  0  0  0  0  0  0  0  0  0  0
    0.9639   -0.1431   -0.0612 C   0  0  0  0  0  0  0  0  0  0  0  0
    1.5977    0.1344   -1.2829 C   0  0  0  0  0  0  0  0  0  0  0  0
    2.9902    0.1057   -1.3879 C   0  0  0  0  0  0  0  0  0  0  0  0
    3.7676   -0.2041   -0.2744 C   0  0  0  0  0  0  0  0  0  0  0  0
    3.1546   -0.4863    0.9441 C   0  0  0  0  0  0  0  0  0  0  0  0
    1.7622   -0.4574    1.0497 C   0  0  0  0  0  0  0  0  0  0  0  0
   -3.2196    2.0030    0.0684 H   0  0  0  0  0  0  0  0  0  0  0  0
   -4.4186   -0.1459    0.3199 H   0  0  0  0  0  0  0  0  0  0  0  0
   -4.1788   -2.3979    0.4853 H   0  0  0  0  0  0  0  0  0  0  0  0
   -0.6755   -2.2675    0.2357 H   0  0  0  0  0  0  0  0  0  0  0  0
    1.0103    0.3754   -2.1674 H   0  0  0  0  0  0  0  0  0  0  0  0
    3.4670    0.3274   -2.3393 H   0  0  0  0  0  0  0  0  0  0  0  0
    4.8513   -0.2233   -0.3558 H   0  0  0  0  0  0  0  0  0  0  0  0
    3.7599   -0.7250    1.8148 H   0  0  0  0  0  0  0  0  0  0  0  0
    1.3023   -0.6739    2.0121 H   0  0  0  0  0  0  0  0  0  0  0  0
  1  2  2  0
  2  3  1  0
  2  4  1  0
  4  5  1  0
  5  6  2  0
  6  7  1  0
  7  8  1  0
  7  9  2  0
  9 10  1  0
 10 11  1  0
 11 12  2  0
 12 13  1  0
 13 14  2  0
 14 15  1  0
 15 16  2  0
 10  4  2  0
 16 11  1  0
  5 17  1  0
  6 18  1  0
  8 19  1  0
  9 20  1  0
 12 21  1  0
 13 22  1  0
 14 23  1  0
 15 24  1  0
 16 25  1  0
M  CHG  2   2   1   3  -1
M  END
$$$$
