
     RDKit          3D

 27 28  0  0  0  0  0  0  0  0999 V2000
   -4.6969   -1.5022    0.0615 O   0  0  0  0  0  0  0  0  0  0  0  0
   -3.4880   -1.6306    0.1067 C   0  0  0  0  0  0  0  0  0  0  0  0
   -2.9224   -2.8371    0.2875 O   0  0  0  0  0  0  0  0  0  0  0  0
   -2.4891   -0.5424   -0.0199 C   0  0  0  0  0  0  0  0  0  0  0  0
   -2.9550    0.7627   -0.1973 C   0  0  0  0  0  0  0  0  0  0  0  0
   -2.0371    1.7944   -0.3162 C   0  0  0  0  0  0  0  0  0  0  0  0
   -2.4955    3.0709   -0.4835 O   0  0  0  0  0  0  0  0  0  0  0  0
   -0.6626    1.5529   -0.2626 C   0  0  0  0  0  0  0  0  0  0  0  0
    0.1469    2.6570   -0.3717 O   0  0  0  0  0  0  0  0  0  0  0  0
   -0.1688    0.2509   -0.0941 C   0  0  0  0  0  0  0  0  0  0  0  0
    1.2670   -0.0539   -0.0540 C   0  0  0  0  0  0  0  0  0  0  0  0
    2.0511    0.0355   -1.2163 C   0  0  0  0  0  0  0  0  0  0  0  0
    3.4187   -0.2464   -1.1809 C   0  0  0  0  0  0  0  0  0  0  0  0
    4.0214   -0.6242    0.0176 C   0  0  0  0  0  0  0  0  0  0  0  0
    3.2521   -0.7201    1.1749 C   0  0  0  0  0  0  0  0  0  0  0  0
    4.0674   -1.2337    2.8015 Br  0  0  0  0  0  0  0  0  0  0  0  0
    1.8854   -0.4389    1.1455 C   0  0  0  0  0  0  0  0  0  0  0  0
   -1.1060   -0.7931    0.0306 C   0  0  0  0  0  0  0  0  0  0  0  0
   -3.6888   -3.4452    0.3543 H   0  0  0  0  0  0  0  0  0  0  0  0
   -4.0198    0.9770   -0.2405 H   0  0  0  0  0  0  0  0  0  0  0  0
   -1.6876    3.6200   -0.5400 H   0  0  0  0  0  0  0  0  0  0  0  0
    1.0674    2.3793   -0.2152 H   0  0  0  0  0  0  0  0  0  0  0  0
    1.5941    0.3192   -2.1638 H   0  0  0  0  0  0  0  0  0  0  0  0
    4.0120   -0.1769   -2.0897 H   0  0  0  0  0  0  0  0  0  0  0  0
    5.0856   -0.8450    0.0381 H   0  0  0  0  0  0  0  0  0  0  0  0
    1.2972   -0.5156    2.0581 H   0  0  0  0  0  0  0  0  0  0  0  0
   -0.7491   -1.8144    0.1588 H   0  0  0  0  0  0  0  0  0  0  0  0
  1  2  2  0
  2  3  1  0
  2  4  1  0
  4  5  1  0
  5  6  2  0
  6  7  1  0
  6  8  1  0
  8  9  1  0
  8 10  2  0
 10 11  1  0
 11 12  2  0
 12 13  1  0
 13 14  2  0
 14 15  1  0
 15 16  1  0
 15 17  2  0
 10 18  1  0
 18  4  2  0
 17 11  1  0
  3 19  1  0
  5 20  1  0
  7 21  1  0
  9 22  1  0
 12 23  1  0
 13 24  1  0
 14 25  1  0
 17 26  1  0
 18 27  1  0
M  END
$$$$
