
     RDKit          3D

 28 29  0  0  0  0  0  0  0  0999 V2000
    4.4396    1.9826    0.2047 O   0  0  0  0  0  0  0  0  0  0  0  0
    3.7125    1.2617    0.9020 N   0  0  0  0  0  0  0  0  0  0  0  0
    3.6876    1.2471    2.1410 O   0  0  0  0  0  0  0  0  0  0  0  0
    2.7525    0.4207    0.2183 C   0  0  0  0  0  0  0  0  0  0  0  0
    1.3899    0.6649    0.4367 C   0  0  0  0  0  0  0  0  0  0  0  0
    0.4291   -0.1149   -0.2232 C   0  0  0  0  0  0  0  0  0  0  0  0
   -1.0068    0.1266   -0.0119 C   0  0  0  0  0  0  0  0  0  0  0  0
   -1.5794    1.3285   -0.4634 C   0  0  0  0  0  0  0  0  0  0  0  0
   -2.9432    1.5803   -0.3009 C   0  0  0  0  0  0  0  0  0  0  0  0
   -3.4209    2.7681   -0.7686 O   0  0  0  0  0  0  0  0  0  0  0  0
   -3.7824    0.6538    0.3099 C   0  0  0  0  0  0  0  0  0  0  0  0
   -3.2466   -0.5465    0.7717 C   0  0  0  0  0  0  0  0  0  0  0  0
   -1.8734   -0.7912    0.6114 C   0  0  0  0  0  0  0  0  0  0  0  0
   -1.3607   -2.0446    1.1310 N   0  0  0  0  0  0  0  0  0  0  0  0
   -1.7548   -3.0798    0.5772 O   0  0  0  0  0  0  0  0  0  0  0  0
   -0.5891   -1.9864    2.0964 O   0  0  0  0  0  0  0  0  0  0  0  0
    0.8732   -1.1246   -1.0976 C   0  0  0  0  0  0  0  0  0  0  0  0
    2.2390   -1.3667   -1.2985 C   0  0  0  0  0  0  0  0  0  0  0  0
    3.1864   -0.5922   -0.6345 C   0  0  0  0  0  0  0  0  0  0  0  0
    4.5147   -0.8442   -0.8081 O   0  0  0  0  0  0  0  0  0  0  0  0
    1.0824    1.4535    1.1221 H   0  0  0  0  0  0  0  0  0  0  0  0
   -0.9660    2.0798   -0.9591 H   0  0  0  0  0  0  0  0  0  0  0  0
   -4.3740    2.8258   -0.5875 H   0  0  0  0  0  0  0  0  0  0  0  0
   -4.8437    0.8492    0.4334 H   0  0  0  0  0  0  0  0  0  0  0  0
   -3.8910   -1.2789    1.2537 H   0  0  0  0  0  0  0  0  0  0  0  0
    0.1522   -1.7406   -1.6356 H   0  0  0  0  0  0  0  0  0  0  0  0
    2.5366   -2.1658   -1.9724 H   0  0  0  0  0  0  0  0  0  0  0  0
    4.6364   -1.5661   -1.4481 H   0  0  0  0  0  0  0  0  0  0  0  0
  1  2  2  0
  2  3  1  0
  2  4  1  0
  4  5  1  0
  5  6  2  0
  6  7  1  0
  7  8  1  0
  8  9  2  0
  9 10  1  0
  9 11  1  0
 11 12  2  0
 12 13  1  0
 13 14  1  0
 14 15  2  0
 14 16  1  0
  6 17  1  0
 17 18  2  0
 18 19  1  0
 19 20  1  0
 19  4  2  0
 13  7  2  0
  5 21  1  0
  8 22  1  0
 10 23  1  0
 11 24  1  0
 12 25  1  0
 17 26  1  0
 18 27  1  0
 20 28  1  0
M  CHG  4   2   1   3  -1  14   1  16  -1
M  END
$$$$
