
     RDKit          3D

 57 60  0  0  0  0  0  0  0  0999 V2000
    5.0525   -3.0462   -0.5142 C   0  0  0  0  0  0  0  0  0  0  0  0
    4.5693   -2.1370    0.6064 C   0  0  0  0  0  0  0  0  0  0  0  0
    4.2988   -0.7825    0.1068 N   0  0  0  0  0  0  0  0  0  0  0  0
    2.9096   -0.5236   -0.3121 C   0  0  0  0  0  0  0  0  0  0  0  0
    2.0809    0.0730    0.8307 C   0  0  0  0  0  0  0  0  0  0  0  0
    0.7094    0.3394    0.3639 N   0  0  0  0  0  0  0  0  0  0  0  0
   -0.0351   -0.6464    0.5150 N   0  0  0  0  0  0  0  0  0  0  0  0
   -1.2356   -0.2723    0.0382 N   0  0  0  0  0  0  0  0  0  0  0  0
   -2.3760   -1.0028    0.4109 C   0  0  0  0  0  0  0  0  0  0  0  0
   -2.3069   -2.2865    0.9508 C   0  0  0  0  0  0  0  0  0  0  0  0
   -3.4729   -3.0009    1.2521 C   0  0  0  0  0  0  0  0  0  0  0  0
   -4.7357   -2.4838    1.0052 C   0  0  0  0  0  0  0  0  0  0  0  0
   -5.8035   -3.2207    1.3298 N   0  0  0  0  0  0  0  0  0  0  0  0
   -7.0057   -2.6906    1.0780 C   0  0  0  0  0  0  0  0  0  0  0  0
   -7.2393   -1.4978    0.5258 N   0  0  0  0  0  0  0  0  0  0  0  0
   -6.1484   -0.7741    0.1890 C   0  0  0  0  0  0  0  0  0  0  0  0
   -6.4737    0.5147   -0.4422 C   0  0  0  0  0  0  0  0  0  0  0  0
   -7.1206    1.5245    0.2909 C   0  0  0  0  0  0  0  0  0  0  0  0
   -7.4352    2.7520   -0.2975 C   0  0  0  0  0  0  0  0  0  0  0  0
   -7.1139    2.9851   -1.6333 C   0  0  0  0  0  0  0  0  0  0  0  0
   -6.4870    1.9872   -2.3755 C   0  0  0  0  0  0  0  0  0  0  0  0
   -6.0947    2.2714   -4.0267 Cl  0  0  0  0  0  0  0  0  0  0  0  0
   -6.1711    0.7599   -1.7921 C   0  0  0  0  0  0  0  0  0  0  0  0
   -4.8332   -1.2149    0.4223 C   0  0  0  0  0  0  0  0  0  0  0  0
   -3.6460   -0.4876    0.1283 C   0  0  0  0  0  0  0  0  0  0  0  0
    5.2879    0.1935    0.0304 C   0  0  0  0  0  0  0  0  0  0  0  0
    6.6321   -0.0736    0.3434 C   0  0  0  0  0  0  0  0  0  0  0  0
    7.6311    0.9067    0.2774 C   0  0  0  0  0  0  0  0  0  0  0  0
    7.3167    2.2011   -0.1130 C   0  0  0  0  0  0  0  0  0  0  0  0
    6.0031    2.5157   -0.4501 C   0  0  0  0  0  0  0  0  0  0  0  0
    5.6301    3.9136   -0.8474 C   0  0  0  0  0  0  0  0  0  0  0  0
    5.0123    1.5176   -0.3635 C   0  0  0  0  0  0  0  0  0  0  0  0
    5.9877   -2.6866   -0.9537 H   0  0  0  0  0  0  0  0  0  0  0  0
    5.2241   -4.0575   -0.1325 H   0  0  0  0  0  0  0  0  0  0  0  0
    4.3109   -3.1081   -1.3176 H   0  0  0  0  0  0  0  0  0  0  0  0
    3.6499   -2.5649    1.0266 H   0  0  0  0  0  0  0  0  0  0  0  0
    5.2787   -2.1304    1.4413 H   0  0  0  0  0  0  0  0  0  0  0  0
    2.8677    0.1092   -1.2067 H   0  0  0  0  0  0  0  0  0  0  0  0
    2.4445   -1.4662   -0.6313 H   0  0  0  0  0  0  0  0  0  0  0  0
    2.5141    1.0205    1.1679 H   0  0  0  0  0  0  0  0  0  0  0  0
    2.0808   -0.5953    1.7018 H   0  0  0  0  0  0  0  0  0  0  0  0
   -1.3618    0.7305   -0.0512 H   0  0  0  0  0  0  0  0  0  0  0  0
   -1.3445   -2.7516    1.1505 H   0  0  0  0  0  0  0  0  0  0  0  0
   -3.3866   -3.9938    1.6890 H   0  0  0  0  0  0  0  0  0  0  0  0
   -7.8711   -3.2870    1.3463 H   0  0  0  0  0  0  0  0  0  0  0  0
   -7.3881    1.3492    1.3322 H   0  0  0  0  0  0  0  0  0  0  0  0
   -7.9360    3.5211    0.2854 H   0  0  0  0  0  0  0  0  0  0  0  0
   -7.3619    3.9394   -2.0903 H   0  0  0  0  0  0  0  0  0  0  0  0
   -5.6957   -0.0139   -2.3913 H   0  0  0  0  0  0  0  0  0  0  0  0
   -3.7198    0.5000   -0.3219 H   0  0  0  0  0  0  0  0  0  0  0  0
    6.9507   -1.0660    0.6455 H   0  0  0  0  0  0  0  0  0  0  0  0
    8.6555    0.6498    0.5332 H   0  0  0  0  0  0  0  0  0  0  0  0
    8.0983    2.9550   -0.1550 H   0  0  0  0  0  0  0  0  0  0  0  0
    4.8749    3.9017   -1.6403 H   0  0  0  0  0  0  0  0  0  0  0  0
    5.2321    4.4544    0.0167 H   0  0  0  0  0  0  0  0  0  0  0  0
    6.4973    4.4594   -1.2334 H   0  0  0  0  0  0  0  0  0  0  0  0
    3.9990    1.8166   -0.6138 H   0  0  0  0  0  0  0  0  0  0  0  0
  1  2  1  0
  2  3  1  0
  3  4  1  0
  4  5  1  0
  5  6  1  0
  6  7  2  0
  7  8  1  0
  8  9  1  0
  9 10  1  0
 10 11  2  0
 11 12  1  0
 12 13  2  0
 13 14  1  0
 14 15  2  0
 15 16  1  0
 16 17  1  0
 17 18  2  0
 18 19  1  0
 19 20  2  0
 20 21  1  0
 21 22  1  0
 21 23  2  0
 16 24  2  0
 24 25  1  0
  3 26  1  0
 26 27  1  0
 27 28  2  0
 28 29  1  0
 29 30  2  0
 30 31  1  0
 30 32  1  0
 25  9  2  0
 32 26  2  0
 24 12  1  0
 23 17  1  0
  1 33  1  0
  1 34  1  0
  1 35  1  0
  2 36  1  0
  2 37  1  0
  4 38  1  0
  4 39  1  0
  5 40  1  0
  5 41  1  0
  8 42  1  0
 10 43  1  0
 11 44  1  0
 14 45  1  0
 18 46  1  0
 19 47  1  0
 20 48  1  0
 23 49  1  0
 25 50  1  0
 27 51  1  0
 28 52  1  0
 29 53  1  0
 31 54  1  0
 31 55  1  0
 31 56  1  0
 32 57  1  0
M  END
$$$$
