
     RDKit          3D

 43 44  0  0  0  0  0  0  0  0999 V2000
   -4.9019   -1.0355    1.6174 C   0  0  0  0  0  0  0  0  0  0  0  0
   -4.7539   -0.7517    0.1240 N   0  0  0  0  0  0  0  0  0  0  0  0
   -5.4659    0.5485   -0.2163 C   0  0  0  0  0  0  0  0  0  0  0  0
   -5.4226   -1.8916   -0.6472 C   0  0  0  0  0  0  0  0  0  0  0  0
   -3.2580   -0.7091   -0.3021 C   0  0  0  0  0  0  0  0  0  0  0  0
   -2.3957    0.3296    0.4445 C   0  0  0  0  0  0  0  0  0  0  0  0
   -2.2542   -0.0486    1.8220 O   0  0  0  0  0  0  0  0  0  0  0  0
   -1.0032    0.4031   -0.1969 C   0  0  0  0  0  0  0  0  0  0  0  0
   -0.2765    1.4332    0.4852 O   0  0  0  0  0  0  0  0  0  0  0  0
    0.9961    1.6075   -0.0244 C   0  0  0  0  0  0  0  0  0  0  0  0
    1.7788    2.5776    0.5801 C   0  0  0  0  0  0  0  0  0  0  0  0
    3.0690    2.7847    0.0961 C   0  0  0  0  0  0  0  0  0  0  0  0
    3.5391    2.0124   -0.9646 C   0  0  0  0  0  0  0  0  0  0  0  0
    5.1692    2.2604   -1.6163 S   0  0  0  0  0  0  0  0  0  0  0  0
    6.0452    0.9229   -0.9352 C   0  0  0  0  0  0  0  0  0  0  0  0
    5.5286    0.0424   -0.1433 N   0  0  0  0  0  0  0  0  0  0  0  0
    6.5601   -0.9603    0.1979 C   0  0  0  0  0  0  0  0  0  0  0  0
    7.9469   -0.3532    0.0529 C   0  0  0  0  0  0  0  0  0  0  0  0
    7.7349    0.7829   -1.3259 S   0  0  0  0  0  0  0  0  0  0  0  0
    2.6691    1.0680   -1.5019 C   0  0  0  0  0  0  0  0  0  0  0  0
    1.4036    0.8490   -1.0616 N   0  0  0  0  0  0  0  0  0  0  0  0
   -4.2819   -1.8999    1.8731 H   0  0  0  0  0  0  0  0  0  0  0  0
   -5.9557   -1.2548    1.8186 H   0  0  0  0  0  0  0  0  0  0  0  0
   -4.6154   -0.1454    2.1840 H   0  0  0  0  0  0  0  0  0  0  0  0
   -6.5300    0.4270    0.0032 H   0  0  0  0  0  0  0  0  0  0  0  0
   -5.0523    1.3556    0.3940 H   0  0  0  0  0  0  0  0  0  0  0  0
   -5.3185    0.7541   -1.2802 H   0  0  0  0  0  0  0  0  0  0  0  0
   -5.3265   -1.6870   -1.7180 H   0  0  0  0  0  0  0  0  0  0  0  0
   -6.4780   -1.9343   -0.3623 H   0  0  0  0  0  0  0  0  0  0  0  0
   -4.9197   -2.8280   -0.3865 H   0  0  0  0  0  0  0  0  0  0  0  0
   -2.8687   -1.7182   -0.1210 H   0  0  0  0  0  0  0  0  0  0  0  0
   -3.2560   -0.5127   -1.3800 H   0  0  0  0  0  0  0  0  0  0  0  0
   -2.8538    1.3239    0.4296 H   0  0  0  0  0  0  0  0  0  0  0  0
   -1.5143    0.4836    2.1815 H   0  0  0  0  0  0  0  0  0  0  0  0
   -1.1030    0.6485   -1.2617 H   0  0  0  0  0  0  0  0  0  0  0  0
   -0.4882   -0.5574   -0.0650 H   0  0  0  0  0  0  0  0  0  0  0  0
    1.3995    3.1623    1.4104 H   0  0  0  0  0  0  0  0  0  0  0  0
    3.7001    3.5417    0.5549 H   0  0  0  0  0  0  0  0  0  0  0  0
    6.4390   -1.8316   -0.4573 H   0  0  0  0  0  0  0  0  0  0  0  0
    6.4088   -1.3069    1.2263 H   0  0  0  0  0  0  0  0  0  0  0  0
    8.2187    0.2179    0.9457 H   0  0  0  0  0  0  0  0  0  0  0  0
    8.7142   -1.1064   -0.1408 H   0  0  0  0  0  0  0  0  0  0  0  0
    2.9730    0.4372   -2.3329 H   0  0  0  0  0  0  0  0  0  0  0  0
  1  2  1  0
  2  3  1  0
  2  4  1  0
  2  5  1  0
  5  6  1  0
  6  7  1  0
  6  8  1  0
  8  9  1  0
  9 10  1  0
 10 11  2  0
 11 12  1  0
 12 13  2  0
 13 14  1  0
 14 15  1  0
 15 16  2  0
 16 17  1  0
 17 18  1  0
 18 19  1  0
 13 20  1  0
 20 21  2  0
 21 10  1  0
 19 15  1  0
  1 22  1  0
  1 23  1  0
  1 24  1  0
  3 25  1  0
  3 26  1  0
  3 27  1  0
  4 28  1  0
  4 29  1  0
  4 30  1  0
  5 31  1  0
  5 32  1  0
  6 33  1  0
  7 34  1  0
  8 35  1  0
  8 36  1  0
 11 37  1  0
 12 38  1  0
 17 39  1  0
 17 40  1  0
 18 41  1  0
 18 42  1  0
 20 43  1  0
M  CHG  1   2   1
M  END
$$$$
