
     RDKit          3D

 36 38  0  0  0  0  0  0  0  0999 V2000
    5.6058    1.4123   -0.7098 C   0  0  0  0  0  0  0  0  0  0  0  0
    4.5387    0.4172   -0.3616 C   0  0  0  0  0  0  0  0  0  0  0  0
    4.8328   -0.9486   -0.3044 C   0  0  0  0  0  0  0  0  0  0  0  0
    3.8448   -1.8663    0.0496 C   0  0  0  0  0  0  0  0  0  0  0  0
    2.5557   -1.4256    0.3570 C   0  0  0  0  0  0  0  0  0  0  0  0
    2.2406   -0.0612    0.3175 C   0  0  0  0  0  0  0  0  0  0  0  0
    0.8945    0.4132    0.6433 C   0  0  0  0  0  0  0  0  0  0  0  0
    0.4749    1.5638    1.2877 C   0  0  0  0  0  0  0  0  0  0  0  0
   -0.9401    1.5576    1.3285 C   0  0  0  0  0  0  0  0  0  0  0  0
   -1.3739    0.4043    0.7044 C   0  0  0  0  0  0  0  0  0  0  0  0
   -2.7254   -0.0927    0.4629 C   0  0  0  0  0  0  0  0  0  0  0  0
   -3.1172   -1.3042    1.0543 C   0  0  0  0  0  0  0  0  0  0  0  0
   -4.4121   -1.7902    0.8644 C   0  0  0  0  0  0  0  0  0  0  0  0
   -4.8201   -2.9602    1.4332 O   0  0  0  0  0  0  0  0  0  0  0  0
   -5.3392   -1.0964    0.0915 C   0  0  0  0  0  0  0  0  0  0  0  0
   -4.9744    0.1083   -0.5044 C   0  0  0  0  0  0  0  0  0  0  0  0
   -3.6735    0.5929   -0.3120 C   0  0  0  0  0  0  0  0  0  0  0  0
   -3.3204    1.8281   -0.9778 N   0  0  0  0  0  0  0  0  0  0  0  0
   -3.7823    2.8734   -0.5000 O   0  0  0  0  0  0  0  0  0  0  0  0
   -2.6282    1.7385   -2.0006 O   0  0  0  0  0  0  0  0  0  0  0  0
   -0.2482   -0.2678    0.2830 N   0  0  0  0  0  0  0  0  0  0  0  0
    3.2452    0.8516   -0.0350 C   0  0  0  0  0  0  0  0  0  0  0  0
    6.3513    0.9689   -1.3783 H   0  0  0  0  0  0  0  0  0  0  0  0
    6.1073    1.7566    0.1999 H   0  0  0  0  0  0  0  0  0  0  0  0
    5.1786    2.2769   -1.2287 H   0  0  0  0  0  0  0  0  0  0  0  0
    5.8344   -1.3053   -0.5339 H   0  0  0  0  0  0  0  0  0  0  0  0
    4.0816   -2.9261    0.0945 H   0  0  0  0  0  0  0  0  0  0  0  0
    1.8114   -2.1602    0.6511 H   0  0  0  0  0  0  0  0  0  0  0  0
    1.1229    2.3302    1.6939 H   0  0  0  0  0  0  0  0  0  0  0  0
   -1.5713    2.3195    1.7700 H   0  0  0  0  0  0  0  0  0  0  0  0
   -2.4134   -1.8515    1.6763 H   0  0  0  0  0  0  0  0  0  0  0  0
   -4.1079   -3.3107    1.9938 H   0  0  0  0  0  0  0  0  0  0  0  0
   -6.3423   -1.4943   -0.0412 H   0  0  0  0  0  0  0  0  0  0  0  0
   -5.6930    0.6553   -1.1101 H   0  0  0  0  0  0  0  0  0  0  0  0
   -0.2549   -1.1225   -0.2563 H   0  0  0  0  0  0  0  0  0  0  0  0
    3.0174    1.9153   -0.0709 H   0  0  0  0  0  0  0  0  0  0  0  0
  1  2  1  0
  2  3  2  0
  3  4  1  0
  4  5  2  0
  5  6  1  0
  6  7  1  0
  7  8  2  0
  8  9  1  0
  9 10  2  0
 10 11  1  0
 11 12  1  0
 12 13  2  0
 13 14  1  0
 13 15  1  0
 15 16  2  0
 16 17  1  0
 17 18  1  0
 18 19  2  0
 18 20  1  0
 10 21  1  0
  6 22  2  0
 22  2  1  0
 21  7  1  0
 17 11  2  0
  1 23  1  0
  1 24  1  0
  1 25  1  0
  3 26  1  0
  4 27  1  0
  5 28  1  0
  8 29  1  0
  9 30  1  0
 12 31  1  0
 14 32  1  0
 15 33  1  0
 16 34  1  0
 21 35  1  0
 22 36  1  0
M  CHG  2  18   1  20  -1
M  END
$$$$
