
     RDKit          3D

 25 26  0  0  0  0  0  0  0  0999 V2000
    3.3480   -1.5319   -2.1235 O   0  0  0  0  0  0  0  0  0  0  0  0
    3.3818   -1.4264   -0.8890 N   0  0  0  0  0  0  0  0  0  0  0  0
    4.0741   -2.1117   -0.1241 O   0  0  0  0  0  0  0  0  0  0  0  0
    2.4751   -0.4698   -0.2918 C   0  0  0  0  0  0  0  0  0  0  0  0
    1.0984   -0.6815   -0.4481 C   0  0  0  0  0  0  0  0  0  0  0  0
    0.1853    0.2178    0.1221 C   0  0  0  0  0  0  0  0  0  0  0  0
   -1.2656    0.0195   -0.0242 C   0  0  0  0  0  0  0  0  0  0  0  0
   -2.0835    1.0357   -0.5517 C   0  0  0  0  0  0  0  0  0  0  0  0
   -3.4616    0.8502   -0.6921 C   0  0  0  0  0  0  0  0  0  0  0  0
   -4.0372   -0.3543   -0.3053 C   0  0  0  0  0  0  0  0  0  0  0  0
   -5.3613   -0.5110   -0.4473 F   0  0  0  0  0  0  0  0  0  0  0  0
   -3.2501   -1.3748    0.2192 C   0  0  0  0  0  0  0  0  0  0  0  0
   -3.9565   -2.8682    0.7038 Cl  0  0  0  0  0  0  0  0  0  0  0  0
   -1.8718   -1.1909    0.3589 C   0  0  0  0  0  0  0  0  0  0  0  0
    0.6970    1.3166    0.8392 C   0  0  0  0  0  0  0  0  0  0  0  0
    2.0764    1.5212    0.9839 C   0  0  0  0  0  0  0  0  0  0  0  0
    2.9734    0.6240    0.4123 C   0  0  0  0  0  0  0  0  0  0  0  0
    4.3150    0.8346    0.5259 O   0  0  0  0  0  0  0  0  0  0  0  0
    0.7441   -1.5376   -1.0202 H   0  0  0  0  0  0  0  0  0  0  0  0
   -1.6473    1.9812   -0.8711 H   0  0  0  0  0  0  0  0  0  0  0  0
   -4.0878    1.6361   -1.1036 H   0  0  0  0  0  0  0  0  0  0  0  0
   -1.2691   -1.9932    0.7804 H   0  0  0  0  0  0  0  0  0  0  0  0
    0.0140    2.0276    1.3037 H   0  0  0  0  0  0  0  0  0  0  0  0
    2.4234    2.3870    1.5415 H   0  0  0  0  0  0  0  0  0  0  0  0
    4.4855    1.5999    1.1012 H   0  0  0  0  0  0  0  0  0  0  0  0
  1  2  2  0
  2  3  1  0
  2  4  1  0
  4  5  1  0
  5  6  2  0
  6  7  1  0
  7  8  1  0
  8  9  2  0
  9 10  1  0
 10 11  1  0
 10 12  2  0
 12 13  1  0
 12 14  1  0
  6 15  1  0
 15 16  2  0
 16 17  1  0
 17 18  1  0
 17  4  2  0
 14  7  2  0
  5 19  1  0
  8 20  1  0
  9 21  1  0
 14 22  1  0
 15 23  1  0
 16 24  1  0
 18 25  1  0
M  CHG  2   2   1   3  -1
M  END
$$$$
