
     RDKit          3D

 33 35  0  0  0  0  0  0  0  0999 V2000
   -3.2789   -2.5642   -1.9116 O   0  0  0  0  0  0  0  0  0  0  0  0
   -2.8176   -2.3068   -0.7911 N   0  0  0  0  0  0  0  0  0  0  0  0
   -2.1687   -3.0817   -0.0759 O   0  0  0  0  0  0  0  0  0  0  0  0
   -3.1247   -1.0038   -0.2420 C   0  0  0  0  0  0  0  0  0  0  0  0
   -4.4242   -0.8115    0.2532 C   0  0  0  0  0  0  0  0  0  0  0  0
   -4.7567    0.4105    0.8348 C   0  0  0  0  0  0  0  0  0  0  0  0
   -3.7916    1.4108    0.9100 C   0  0  0  0  0  0  0  0  0  0  0  0
   -4.0700    2.6219    1.4707 O   0  0  0  0  0  0  0  0  0  0  0  0
   -2.5022    1.2150    0.4117 C   0  0  0  0  0  0  0  0  0  0  0  0
   -2.1413   -0.0051   -0.1800 C   0  0  0  0  0  0  0  0  0  0  0  0
   -0.7879   -0.1627   -0.7128 C   0  0  0  0  0  0  0  0  0  0  0  0
   -0.3479   -0.5646   -1.9597 C   0  0  0  0  0  0  0  0  0  0  0  0
    1.0676   -0.5521   -1.9459 C   0  0  0  0  0  0  0  0  0  0  0  0
    1.4843   -0.1313   -0.6954 C   0  0  0  0  0  0  0  0  0  0  0  0
    2.8309    0.0437   -0.1486 C   0  0  0  0  0  0  0  0  0  0  0  0
    3.8648   -0.8238   -0.5295 C   0  0  0  0  0  0  0  0  0  0  0  0
    5.1547   -0.6711   -0.0137 C   0  0  0  0  0  0  0  0  0  0  0  0
    5.4275    0.3551    0.8881 C   0  0  0  0  0  0  0  0  0  0  0  0
    4.4074    1.2245    1.2667 C   0  0  0  0  0  0  0  0  0  0  0  0
    4.7754    2.6244    2.4843 Br  0  0  0  0  0  0  0  0  0  0  0  0
    3.1165    1.0760    0.7554 C   0  0  0  0  0  0  0  0  0  0  0  0
    0.3392    0.0919    0.0385 N   0  0  0  0  0  0  0  0  0  0  0  0
   -5.1658   -1.6051    0.1925 H   0  0  0  0  0  0  0  0  0  0  0  0
   -5.7600    0.5638    1.2214 H   0  0  0  0  0  0  0  0  0  0  0  0
   -5.0014    2.6402    1.7480 H   0  0  0  0  0  0  0  0  0  0  0  0
   -1.7896    2.0352    0.4711 H   0  0  0  0  0  0  0  0  0  0  0  0
   -0.9742   -0.8382   -2.8006 H   0  0  0  0  0  0  0  0  0  0  0  0
    1.7162   -0.8149   -2.7721 H   0  0  0  0  0  0  0  0  0  0  0  0
    3.6704   -1.6378   -1.2249 H   0  0  0  0  0  0  0  0  0  0  0  0
    5.9435   -1.3554   -0.3159 H   0  0  0  0  0  0  0  0  0  0  0  0
    6.4326    0.4692    1.2852 H   0  0  0  0  0  0  0  0  0  0  0  0
    2.3429    1.7801    1.0485 H   0  0  0  0  0  0  0  0  0  0  0  0
    0.3286    0.3680    1.0107 H   0  0  0  0  0  0  0  0  0  0  0  0
  1  2  2  0
  2  3  1  0
  2  4  1  0
  4  5  1  0
  5  6  2  0
  6  7  1  0
  7  8  1  0
  7  9  2  0
  9 10  1  0
 10 11  1  0
 11 12  2  0
 12 13  1  0
 13 14  2  0
 14 15  1  0
 15 16  2  0
 16 17  1  0
 17 18  2  0
 18 19  1  0
 19 20  1  0
 19 21  2  0
 14 22  1  0
 10  4  2  0
 22 11  1  0
 21 15  1  0
  5 23  1  0
  6 24  1  0
  8 25  1  0
  9 26  1  0
 12 27  1  0
 13 28  1  0
 16 29  1  0
 17 30  1  0
 18 31  1  0
 21 32  1  0
 22 33  1  0
M  CHG  2   2   1   3  -1
M  END
$$$$
