
     RDKit          3D

 37 38  0  0  0  0  0  0  0  0999 V2000
   -4.2093   -1.3387    0.1755 C   0  0  0  0  0  0  0  0  0  0  0  0
   -3.9583    0.1445   -0.0503 N   0  0  0  0  0  0  0  0  0  0  0  0
   -4.9623    0.6581   -1.0837 C   0  0  0  0  0  0  0  0  0  0  0  0
   -4.1967    0.9006    1.2578 C   0  0  0  0  0  0  0  0  0  0  0  0
   -2.5298    0.4051   -0.6073 C   0  0  0  0  0  0  0  0  0  0  0  0
   -1.3765    0.0038    0.3353 C   0  0  0  0  0  0  0  0  0  0  0  0
   -1.3821    0.8402    1.4999 O   0  0  0  0  0  0  0  0  0  0  0  0
   -0.0230    0.1663   -0.3759 C   0  0  0  0  0  0  0  0  0  0  0  0
    0.9704   -0.3010    0.5337 O   0  0  0  0  0  0  0  0  0  0  0  0
    2.2542   -0.2280    0.1674 C   0  0  0  0  0  0  0  0  0  0  0  0
    3.1594   -0.6043    1.0366 N   0  0  0  0  0  0  0  0  0  0  0  0
    4.4293   -0.4690    0.5015 C   0  0  0  0  0  0  0  0  0  0  0  0
    5.6374   -0.7784    1.1564 C   0  0  0  0  0  0  0  0  0  0  0  0
    6.8460   -0.5882    0.4839 C   0  0  0  0  0  0  0  0  0  0  0  0
    8.3246   -0.9650    1.2802 Cl  0  0  0  0  0  0  0  0  0  0  0  0
    6.8730   -0.0995   -0.8186 C   0  0  0  0  0  0  0  0  0  0  0  0
    5.6850    0.2138   -1.4874 C   0  0  0  0  0  0  0  0  0  0  0  0
    4.4726    0.0202   -0.8054 C   0  0  0  0  0  0  0  0  0  0  0  0
    2.8634    0.3057   -1.3441 S   0  0  0  0  0  0  0  0  0  0  0  0
   -3.5594   -1.6933    0.9789 H   0  0  0  0  0  0  0  0  0  0  0  0
   -5.2570   -1.4727    0.4619 H   0  0  0  0  0  0  0  0  0  0  0  0
   -3.9972   -1.8706   -0.7564 H   0  0  0  0  0  0  0  0  0  0  0  0
   -4.8007    1.7317   -1.2190 H   0  0  0  0  0  0  0  0  0  0  0  0
   -5.9743    0.4684   -0.7134 H   0  0  0  0  0  0  0  0  0  0  0  0
   -4.7949    0.1222   -2.0227 H   0  0  0  0  0  0  0  0  0  0  0  0
   -3.6521    0.4044    2.0640 H   0  0  0  0  0  0  0  0  0  0  0  0
   -5.2677    0.8643    1.4819 H   0  0  0  0  0  0  0  0  0  0  0  0
   -3.8744    1.9370    1.1253 H   0  0  0  0  0  0  0  0  0  0  0  0
   -2.4653   -0.1484   -1.5514 H   0  0  0  0  0  0  0  0  0  0  0  0
   -2.4837    1.4802   -0.8195 H   0  0  0  0  0  0  0  0  0  0  0  0
   -1.4813   -1.0298    0.6787 H   0  0  0  0  0  0  0  0  0  0  0  0
   -0.5544    0.6481    1.9910 H   0  0  0  0  0  0  0  0  0  0  0  0
    0.1500    1.2257   -0.6010 H   0  0  0  0  0  0  0  0  0  0  0  0
   -0.0092   -0.4324   -1.2939 H   0  0  0  0  0  0  0  0  0  0  0  0
    5.6147   -1.1594    2.1723 H   0  0  0  0  0  0  0  0  0  0  0  0
    7.8244    0.0429   -1.3280 H   0  0  0  0  0  0  0  0  0  0  0  0
    5.7057    0.5954   -2.5041 H   0  0  0  0  0  0  0  0  0  0  0  0
  1  2  1  0
  2  3  1  0
  2  4  1  0
  2  5  1  0
  5  6  1  0
  6  7  1  0
  6  8  1  0
  8  9  1  0
  9 10  1  0
 10 11  2  0
 11 12  1  0
 12 13  2  0
 13 14  1  0
 14 15  1  0
 14 16  2  0
 16 17  1  0
 17 18  2  0
 18 19  1  0
 19 10  1  0
 18 12  1  0
  1 20  1  0
  1 21  1  0
  1 22  1  0
  3 23  1  0
  3 24  1  0
  3 25  1  0
  4 26  1  0
  4 27  1  0
  4 28  1  0
  5 29  1  0
  5 30  1  0
  6 31  1  0
  7 32  1  0
  8 33  1  0
  8 34  1  0
 13 35  1  0
 16 36  1  0
 17 37  1  0
M  CHG  1   2   1
M  END
$$$$
