
     RDKit          3D

 35 37  0  0  0  0  0  0  0  0999 V2000
    5.0639    3.3340   -0.8358 N   0  0  0  0  0  0  0  0  0  0  0  0
    4.0808    2.7202   -0.7711 C   0  0  0  0  0  0  0  0  0  0  0  0
    2.8672    1.9895   -0.6407 C   0  0  0  0  0  0  0  0  0  0  0  0
    1.9023    2.1279   -1.6809 C   0  0  0  0  0  0  0  0  0  0  0  0
    1.0703    2.2088   -2.4863 N   0  0  0  0  0  0  0  0  0  0  0  0
    2.6366    1.2028    0.4462 C   0  0  0  0  0  0  0  0  0  0  0  0
    3.5274    1.0247    1.5024 N   0  0  0  0  0  0  0  0  0  0  0  0
    1.3738    0.4330    0.5582 C   0  0  0  0  0  0  0  0  0  0  0  0
    0.4789    0.9322    1.5557 C   0  0  0  0  0  0  0  0  0  0  0  0
   -0.1576    1.3544    2.4284 N   0  0  0  0  0  0  0  0  0  0  0  0
    1.1270   -0.7064   -0.1257 C   0  0  0  0  0  0  0  0  0  0  0  0
    2.2128   -1.4013   -0.9149 C   0  0  0  0  0  0  0  0  0  0  0  0
    3.2602   -0.9358   -1.3157 O   0  0  0  0  0  0  0  0  0  0  0  0
    1.7557   -2.6862   -1.0910 N   0  0  0  0  0  0  0  0  0  0  0  0
    0.4505   -2.8286   -0.6469 C   0  0  0  0  0  0  0  0  0  0  0  0
   -0.2361   -3.9579   -0.8083 N   0  0  0  0  0  0  0  0  0  0  0  0
   -1.5160   -3.8528   -0.4389 C   0  0  0  0  0  0  0  0  0  0  0  0
   -2.1221   -2.7315   -0.0067 N   0  0  0  0  0  0  0  0  0  0  0  0
   -1.3741   -1.6004    0.0956 C   0  0  0  0  0  0  0  0  0  0  0  0
   -2.1638   -0.3834    0.3143 C   0  0  0  0  0  0  0  0  0  0  0  0
   -3.0409   -0.2824    1.4067 C   0  0  0  0  0  0  0  0  0  0  0  0
   -3.8065    0.8685    1.6100 C   0  0  0  0  0  0  0  0  0  0  0  0
   -3.7182    1.9325    0.7156 C   0  0  0  0  0  0  0  0  0  0  0  0
   -2.8734    1.8442   -0.3877 C   0  0  0  0  0  0  0  0  0  0  0  0
   -2.1077    0.6934   -0.5909 C   0  0  0  0  0  0  0  0  0  0  0  0
   -0.0194   -1.6307   -0.1312 C   0  0  0  0  0  0  0  0  0  0  0  0
    3.1142    0.8323    2.4147 H   0  0  0  0  0  0  0  0  0  0  0  0
    4.3030    1.6851    1.5664 H   0  0  0  0  0  0  0  0  0  0  0  0
    2.2487   -3.4070   -1.5948 H   0  0  0  0  0  0  0  0  0  0  0  0
   -2.1304   -4.7442   -0.5130 H   0  0  0  0  0  0  0  0  0  0  0  0
   -3.1286   -1.1062    2.1127 H   0  0  0  0  0  0  0  0  0  0  0  0
   -4.4702    0.9331    2.4683 H   0  0  0  0  0  0  0  0  0  0  0  0
   -4.3135    2.8277    0.8758 H   0  0  0  0  0  0  0  0  0  0  0  0
   -2.8153    2.6675   -1.0956 H   0  0  0  0  0  0  0  0  0  0  0  0
   -1.4797    0.6428   -1.4789 H   0  0  0  0  0  0  0  0  0  0  0  0
  1  2  3  0
  2  3  1  0
  3  4  1  0
  4  5  3  0
  3  6  2  3
  6  7  1  0
  6  8  1  0
  8  9  1  0
  9 10  3  0
  8 11  2  3
 11 12  1  0
 12 13  2  0
 12 14  1  0
 14 15  1  0
 15 16  2  0
 16 17  1  0
 17 18  2  0
 18 19  1  0
 19 20  1  0
 20 21  2  0
 21 22  1  0
 22 23  2  0
 23 24  1  0
 24 25  2  0
 19 26  2  0
 26 11  1  0
 26 15  1  0
 25 20  1  0
  7 27  1  0
  7 28  1  0
 14 29  1  0
 17 30  1  0
 21 31  1  0
 22 32  1  0
 23 33  1  0
 24 34  1  0
 25 35  1  0
M  END
$$$$
