
     RDKit          3D

 40 42  0  0  0  0  0  0  0  0999 V2000
    2.4196   -0.9832   -2.1485 C   0  0  0  0  0  0  0  0  0  0  0  0
    1.5426   -0.6231   -1.0311 N   0  0  0  0  0  0  0  0  0  0  0  0
    2.0428   -0.2675    0.2363 C   0  0  0  0  0  0  0  0  0  0  0  0
    1.3719   -0.1299    1.2608 O   0  0  0  0  0  0  0  0  0  0  0  0
    3.4921   -0.0111    0.3808 C   0  0  0  0  0  0  0  0  0  0  0  0
    4.1004    1.0327   -0.3300 C   0  0  0  0  0  0  0  0  0  0  0  0
    5.4617    1.2821   -0.1541 C   0  0  0  0  0  0  0  0  0  0  0  0
    6.1965    0.5012    0.7366 C   0  0  0  0  0  0  0  0  0  0  0  0
    7.5039    0.7586    0.8865 F   0  0  0  0  0  0  0  0  0  0  0  0
    5.5844   -0.5225    1.4615 C   0  0  0  0  0  0  0  0  0  0  0  0
    6.4937   -1.4777    2.5675 Cl  0  0  0  0  0  0  0  0  0  0  0  0
    4.2247   -0.7791    1.2927 C   0  0  0  0  0  0  0  0  0  0  0  0
    0.1491   -0.6238   -1.2118 C   0  0  0  0  0  0  0  0  0  0  0  0
   -0.6054   -0.8823   -2.3390 C   0  0  0  0  0  0  0  0  0  0  0  0
   -1.9727   -0.7372   -1.9926 C   0  0  0  0  0  0  0  0  0  0  0  0
   -2.0406   -0.3869   -0.6564 C   0  0  0  0  0  0  0  0  0  0  0  0
   -3.1880   -0.1122    0.2095 C   0  0  0  0  0  0  0  0  0  0  0  0
   -3.2835   -0.7709    1.4453 C   0  0  0  0  0  0  0  0  0  0  0  0
   -4.3757   -0.5524    2.2873 C   0  0  0  0  0  0  0  0  0  0  0  0
   -4.4030   -1.2306    3.4699 O   0  0  0  0  0  0  0  0  0  0  0  0
   -5.4004    0.3203    1.9324 C   0  0  0  0  0  0  0  0  0  0  0  0
   -5.3292    0.9905    0.7128 C   0  0  0  0  0  0  0  0  0  0  0  0
   -4.2268    0.7685   -0.1279 C   0  0  0  0  0  0  0  0  0  0  0  0
   -4.1818    1.5230   -1.3615 N   0  0  0  0  0  0  0  0  0  0  0  0
   -3.4431    2.5163   -1.3912 O   0  0  0  0  0  0  0  0  0  0  0  0
   -4.9301    1.1466   -2.2745 O   0  0  0  0  0  0  0  0  0  0  0  0
   -0.7418   -0.3312   -0.2040 N   0  0  0  0  0  0  0  0  0  0  0  0
    3.4039   -1.3070   -1.8025 H   0  0  0  0  0  0  0  0  0  0  0  0
    2.5284   -0.1134   -2.8031 H   0  0  0  0  0  0  0  0  0  0  0  0
    1.9862   -1.8163   -2.7104 H   0  0  0  0  0  0  0  0  0  0  0  0
    3.5168    1.6565   -1.0038 H   0  0  0  0  0  0  0  0  0  0  0  0
    5.9548    2.0846   -0.6952 H   0  0  0  0  0  0  0  0  0  0  0  0
    3.7332   -1.5626    1.8646 H   0  0  0  0  0  0  0  0  0  0  0  0
   -0.2280   -1.1442   -3.3180 H   0  0  0  0  0  0  0  0  0  0  0  0
   -2.8158   -0.8797   -2.6581 H   0  0  0  0  0  0  0  0  0  0  0  0
   -2.5154   -1.4757    1.7588 H   0  0  0  0  0  0  0  0  0  0  0  0
   -5.2074   -0.9903    3.9589 H   0  0  0  0  0  0  0  0  0  0  0  0
   -6.2502    0.4888    2.5872 H   0  0  0  0  0  0  0  0  0  0  0  0
   -6.1190    1.6806    0.4242 H   0  0  0  0  0  0  0  0  0  0  0  0
   -0.4492   -0.1026    0.7406 H   0  0  0  0  0  0  0  0  0  0  0  0
  1  2  1  0
  2  3  1  0
  3  4  2  0
  3  5  1  0
  5  6  1  0
  6  7  2  0
  7  8  1  0
  8  9  1  0
  8 10  2  0
 10 11  1  0
 10 12  1  0
  2 13  1  0
 13 14  2  0
 14 15  1  0
 15 16  2  0
 16 17  1  0
 17 18  1  0
 18 19  2  0
 19 20  1  0
 19 21  1  0
 21 22  2  0
 22 23  1  0
 23 24  1  0
 24 25  2  0
 24 26  1  0
 16 27  1  0
 12  5  2  0
 27 13  1  0
 23 17  2  0
  1 28  1  0
  1 29  1  0
  1 30  1  0
  6 31  1  0
  7 32  1  0
 12 33  1  0
 14 34  1  0
 15 35  1  0
 18 36  1  0
 20 37  1  0
 21 38  1  0
 22 39  1  0
 27 40  1  0
M  CHG  2  24   1  26  -1
M  END
$$$$
