
     RDKit          3D

 39 41  0  0  0  0  0  0  0  0999 V2000
   -3.0889   -1.9765    0.2985 C   0  0  0  0  0  0  0  0  0  0  0  0
   -1.9781   -1.0263    0.2268 N   0  0  0  0  0  0  0  0  0  0  0  0
   -2.1744    0.3681    0.3955 C   0  0  0  0  0  0  0  0  0  0  0  0
   -1.2479    1.1779    0.5336 O   0  0  0  0  0  0  0  0  0  0  0  0
   -3.5642    0.9380    0.4135 C   0  0  0  0  0  0  0  0  0  0  0  0
   -3.8028    2.0926    1.1549 C   0  0  0  0  0  0  0  0  0  0  0  0
   -5.0792    2.6478    1.1321 C   0  0  0  0  0  0  0  0  0  0  0  0
   -6.0690    2.0451    0.3644 C   0  0  0  0  0  0  0  0  0  0  0  0
   -5.7419    0.9070   -0.3549 C   0  0  0  0  0  0  0  0  0  0  0  0
   -4.5158    0.3396   -0.3509 N   0  0  0  0  0  0  0  0  0  0  0  0
   -0.6720   -1.4876   -0.0205 C   0  0  0  0  0  0  0  0  0  0  0  0
   -0.2011   -2.7601   -0.2736 C   0  0  0  0  0  0  0  0  0  0  0  0
    1.2029   -2.6774   -0.4567 C   0  0  0  0  0  0  0  0  0  0  0  0
    1.5834   -1.3544   -0.3089 C   0  0  0  0  0  0  0  0  0  0  0  0
    2.9003   -0.7196   -0.3972 C   0  0  0  0  0  0  0  0  0  0  0  0
    3.8980   -1.2710   -1.2193 C   0  0  0  0  0  0  0  0  0  0  0  0
    5.1685   -0.6873   -1.3176 C   0  0  0  0  0  0  0  0  0  0  0  0
    5.4593    0.4630   -0.5907 C   0  0  0  0  0  0  0  0  0  0  0  0
    6.7024    1.0178   -0.6612 O   0  0  0  0  0  0  0  0  0  0  0  0
    4.4701    1.0147    0.2211 C   0  0  0  0  0  0  0  0  0  0  0  0
    4.7406    2.2149    0.9824 N   0  0  0  0  0  0  0  0  0  0  0  0
    4.6935    2.1168    2.2173 O   0  0  0  0  0  0  0  0  0  0  0  0
    4.9408    3.2608    0.3494 O   0  0  0  0  0  0  0  0  0  0  0  0
    3.1981    0.4372    0.3327 C   0  0  0  0  0  0  0  0  0  0  0  0
    0.4233   -0.6554   -0.0602 N   0  0  0  0  0  0  0  0  0  0  0  0
   -2.7421   -2.9475    0.6640 H   0  0  0  0  0  0  0  0  0  0  0  0
   -3.8507   -1.6331    1.0034 H   0  0  0  0  0  0  0  0  0  0  0  0
   -3.5180   -2.0980   -0.7002 H   0  0  0  0  0  0  0  0  0  0  0  0
   -3.0094    2.5550    1.7342 H   0  0  0  0  0  0  0  0  0  0  0  0
   -5.2952    3.5478    1.7014 H   0  0  0  0  0  0  0  0  0  0  0  0
   -7.0714    2.4576    0.3214 H   0  0  0  0  0  0  0  0  0  0  0  0
   -6.4819    0.4079   -0.9750 H   0  0  0  0  0  0  0  0  0  0  0  0
   -0.7918   -3.6640   -0.3282 H   0  0  0  0  0  0  0  0  0  0  0  0
    1.8659   -3.5076   -0.6629 H   0  0  0  0  0  0  0  0  0  0  0  0
    3.6902   -2.1659   -1.8036 H   0  0  0  0  0  0  0  0  0  0  0  0
    5.9101   -1.1512   -1.9618 H   0  0  0  0  0  0  0  0  0  0  0  0
    7.2399    0.5430   -1.3177 H   0  0  0  0  0  0  0  0  0  0  0  0
    2.4610    0.8851    0.9956 H   0  0  0  0  0  0  0  0  0  0  0  0
    0.3476    0.3452    0.0831 H   0  0  0  0  0  0  0  0  0  0  0  0
  1  2  1  0
  2  3  1  0
  3  4  2  0
  3  5  1  0
  5  6  2  0
  6  7  1  0
  7  8  2  0
  8  9  1  0
  9 10  2  0
  2 11  1  0
 11 12  2  0
 12 13  1  0
 13 14  2  0
 14 15  1  0
 15 16  1  0
 16 17  2  0
 17 18  1  0
 18 19  1  0
 18 20  2  0
 20 21  1  0
 21 22  2  0
 21 23  1  0
 20 24  1  0
 14 25  1  0
 10  5  1  0
 25 11  1  0
 24 15  2  0
  1 26  1  0
  1 27  1  0
  1 28  1  0
  6 29  1  0
  7 30  1  0
  8 31  1  0
  9 32  1  0
 12 33  1  0
 13 34  1  0
 16 35  1  0
 17 36  1  0
 19 37  1  0
 24 38  1  0
 25 39  1  0
M  CHG  2  21   1  23  -1
M  END
$$$$
