
     RDKit          3D

 35 37  0  0  0  0  0  0  0  0999 V2000
    6.1936   -1.0554   -0.7375 N   0  0  0  0  0  0  0  0  0  0  0  0
    5.0523   -0.9181   -0.8982 C   0  0  0  0  0  0  0  0  0  0  0  0
    3.6500   -0.7416   -1.0633 C   0  0  0  0  0  0  0  0  0  0  0  0
    3.1396   -0.7681   -2.3934 C   0  0  0  0  0  0  0  0  0  0  0  0
    2.6701   -0.7682   -3.4545 N   0  0  0  0  0  0  0  0  0  0  0  0
    2.8390   -0.5370    0.0109 C   0  0  0  0  0  0  0  0  0  0  0  0
    3.2715   -0.4825    1.3360 N   0  0  0  0  0  0  0  0  0  0  0  0
    1.3771   -0.3575   -0.1608 C   0  0  0  0  0  0  0  0  0  0  0  0
    0.6439   -1.5852   -0.1208 C   0  0  0  0  0  0  0  0  0  0  0  0
    0.1067   -2.6127   -0.1386 N   0  0  0  0  0  0  0  0  0  0  0  0
    0.7928    0.8302   -0.4356 C   0  0  0  0  0  0  0  0  0  0  0  0
    1.6316    2.0428   -0.7736 C   0  0  0  0  0  0  0  0  0  0  0  0
    2.8273    2.1884   -0.6172 O   0  0  0  0  0  0  0  0  0  0  0  0
    0.7567    2.9393   -1.3336 N   0  0  0  0  0  0  0  0  0  0  0  0
   -0.5485    2.4784   -1.2876 C   0  0  0  0  0  0  0  0  0  0  0  0
   -1.5710    3.2170   -1.7142 N   0  0  0  0  0  0  0  0  0  0  0  0
   -2.7593    2.6524   -1.4880 C   0  0  0  0  0  0  0  0  0  0  0  0
   -2.9663    1.4927   -0.8386 N   0  0  0  0  0  0  0  0  0  0  0  0
   -1.8808    0.8032   -0.3949 C   0  0  0  0  0  0  0  0  0  0  0  0
   -2.2265   -0.3089    0.4958 C   0  0  0  0  0  0  0  0  0  0  0  0
   -3.0781   -1.3390    0.0605 C   0  0  0  0  0  0  0  0  0  0  0  0
   -3.4328   -2.3893    0.9116 C   0  0  0  0  0  0  0  0  0  0  0  0
   -2.9516   -2.4208    2.2187 C   0  0  0  0  0  0  0  0  0  0  0  0
   -2.1268   -1.3950    2.6709 C   0  0  0  0  0  0  0  0  0  0  0  0
   -1.4793   -1.4229    4.4470 Br  0  0  0  0  0  0  0  0  0  0  0  0
   -1.7713   -0.3416    1.8261 C   0  0  0  0  0  0  0  0  0  0  0  0
   -0.6061    1.2326   -0.6787 C   0  0  0  0  0  0  0  0  0  0  0  0
    4.2716   -0.3134    1.4621 H   0  0  0  0  0  0  0  0  0  0  0  0
    2.7307    0.1419    1.9338 H   0  0  0  0  0  0  0  0  0  0  0  0
    1.0077    3.8512   -1.6833 H   0  0  0  0  0  0  0  0  0  0  0  0
   -3.6386    3.1825   -1.8389 H   0  0  0  0  0  0  0  0  0  0  0  0
   -3.4684   -1.3294   -0.9562 H   0  0  0  0  0  0  0  0  0  0  0  0
   -4.0803   -3.1845    0.5505 H   0  0  0  0  0  0  0  0  0  0  0  0
   -3.2260   -3.2448    2.8719 H   0  0  0  0  0  0  0  0  0  0  0  0
   -1.1505    0.4632    2.2118 H   0  0  0  0  0  0  0  0  0  0  0  0
  1  2  3  0
  2  3  1  0
  3  4  1  0
  4  5  3  0
  3  6  2  3
  6  7  1  0
  6  8  1  0
  8  9  1  0
  9 10  3  0
  8 11  2  3
 11 12  1  0
 12 13  2  0
 12 14  1  0
 14 15  1  0
 15 16  2  0
 16 17  1  0
 17 18  2  0
 18 19  1  0
 19 20  1  0
 20 21  2  0
 21 22  1  0
 22 23  2  0
 23 24  1  0
 24 25  1  0
 24 26  2  0
 19 27  2  0
 27 11  1  0
 27 15  1  0
 26 20  1  0
  7 28  1  0
  7 29  1  0
 14 30  1  0
 17 31  1  0
 21 32  1  0
 22 33  1  0
 23 34  1  0
 26 35  1  0
M  END
$$$$
