
     RDKit          3D

 35 35  0  0  0  0  0  0  0  0999 V2000
   -2.4658   -0.4689   -1.1104 C   0  0  0  0  0  0  0  0  0  0  0  0
   -2.8307   -0.1194    0.3243 N   0  0  0  0  0  0  0  0  0  0  0  0
   -2.8520    1.3972    0.4998 C   0  0  0  0  0  0  0  0  0  0  0  0
   -4.2578   -0.6324    0.5748 C   0  0  0  0  0  0  0  0  0  0  0  0
   -1.9081   -0.8169    1.3606 C   0  0  0  0  0  0  0  0  0  0  0  0
   -0.5037   -0.2263    1.6247 C   0  0  0  0  0  0  0  0  0  0  0  0
   -0.6076    1.1056    2.1464 O   0  0  0  0  0  0  0  0  0  0  0  0
    0.4596   -0.2458    0.4381 C   0  0  0  0  0  0  0  0  0  0  0  0
    1.7673    0.0262    0.9506 O   0  0  0  0  0  0  0  0  0  0  0  0
    2.8044    0.0551    0.0565 C   0  0  0  0  0  0  0  0  0  0  0  0
    2.7302   -0.1517   -1.3230 C   0  0  0  0  0  0  0  0  0  0  0  0
    1.5589   -0.4104   -1.9251 F   0  0  0  0  0  0  0  0  0  0  0  0
    3.8699   -0.0951   -2.1255 C   0  0  0  0  0  0  0  0  0  0  0  0
    5.1072    0.1732   -1.5449 C   0  0  0  0  0  0  0  0  0  0  0  0
    6.6529    0.2513   -2.6272 Br  0  0  0  0  0  0  0  0  0  0  0  0
    5.2107    0.3846   -0.1743 C   0  0  0  0  0  0  0  0  0  0  0  0
    4.0611    0.3236    0.6092 C   0  0  0  0  0  0  0  0  0  0  0  0
    4.1741    0.5320    1.9299 F   0  0  0  0  0  0  0  0  0  0  0  0
   -1.5135   -0.0068   -1.3664 H   0  0  0  0  0  0  0  0  0  0  0  0
   -3.2451   -0.0774   -1.7719 H   0  0  0  0  0  0  0  0  0  0  0  0
   -2.4052   -1.5573   -1.1990 H   0  0  0  0  0  0  0  0  0  0  0  0
   -3.6386    1.8036   -0.1443 H   0  0  0  0  0  0  0  0  0  0  0  0
   -1.8893    1.8054    0.1843 H   0  0  0  0  0  0  0  0  0  0  0  0
   -3.0718    1.6249    1.5464 H   0  0  0  0  0  0  0  0  0  0  0  0
   -4.9270   -0.1793   -0.1630 H   0  0  0  0  0  0  0  0  0  0  0  0
   -4.2533   -1.7215    0.4692 H   0  0  0  0  0  0  0  0  0  0  0  0
   -4.5595   -0.3431    1.5860 H   0  0  0  0  0  0  0  0  0  0  0  0
   -1.8327   -1.8672    1.0556 H   0  0  0  0  0  0  0  0  0  0  0  0
   -2.4598   -0.7765    2.3084 H   0  0  0  0  0  0  0  0  0  0  0  0
   -0.0606   -0.8211    2.4342 H   0  0  0  0  0  0  0  0  0  0  0  0
    0.3025    1.3799    2.3875 H   0  0  0  0  0  0  0  0  0  0  0  0
    0.4410   -1.2325   -0.0370 H   0  0  0  0  0  0  0  0  0  0  0  0
    0.1991    0.5521   -0.2629 H   0  0  0  0  0  0  0  0  0  0  0  0
    3.7773   -0.2611   -3.1952 H   0  0  0  0  0  0  0  0  0  0  0  0
    6.1660    0.5959    0.2974 H   0  0  0  0  0  0  0  0  0  0  0  0
  1  2  1  0
  2  3  1  0
  2  4  1  0
  2  5  1  0
  5  6  1  0
  6  7  1  0
  6  8  1  0
  8  9  1  0
  9 10  1  0
 10 11  1  0
 11 12  1  0
 11 13  2  0
 13 14  1  0
 14 15  1  0
 14 16  2  0
 16 17  1  0
 17 18  1  0
 17 10  2  0
  1 19  1  0
  1 20  1  0
  1 21  1  0
  3 22  1  0
  3 23  1  0
  3 24  1  0
  4 25  1  0
  4 26  1  0
  4 27  1  0
  5 28  1  0
  5 29  1  0
  6 30  1  0
  7 31  1  0
  8 32  1  0
  8 33  1  0
 13 34  1  0
 16 35  1  0
M  CHG  1   2   1
M  END
$$$$
