
     RDKit          3D

 25 26  0  0  0  0  0  0  0  0999 V2000
   -2.9122   -3.0373    0.3387 O   0  0  0  0  0  0  0  0  0  0  0  0
   -3.0472   -1.9602    0.9379 N   0  0  0  0  0  0  0  0  0  0  0  0
   -3.6888   -1.7932    1.9843 O   0  0  0  0  0  0  0  0  0  0  0  0
   -2.3325   -0.8218    0.4012 C   0  0  0  0  0  0  0  0  0  0  0  0
   -0.9341   -0.8907    0.3441 C   0  0  0  0  0  0  0  0  0  0  0  0
   -0.2011    0.1953   -0.1566 C   0  0  0  0  0  0  0  0  0  0  0  0
    1.2685    0.1494   -0.2261 C   0  0  0  0  0  0  0  0  0  0  0  0
    1.9298   -0.9086   -0.8724 C   0  0  0  0  0  0  0  0  0  0  0  0
    3.3251   -0.9533   -0.9379 C   0  0  0  0  0  0  0  0  0  0  0  0
    4.0834    0.0595   -0.3568 C   0  0  0  0  0  0  0  0  0  0  0  0
    3.4482    1.1167    0.2892 C   0  0  0  0  0  0  0  0  0  0  0  0
    2.0528    1.1610    0.3533 C   0  0  0  0  0  0  0  0  0  0  0  0
   -0.9123    1.3301   -0.5918 C   0  0  0  0  0  0  0  0  0  0  0  0
   -2.3120    1.3850   -0.5385 C   0  0  0  0  0  0  0  0  0  0  0  0
   -3.0290    0.3007   -0.0414 C   0  0  0  0  0  0  0  0  0  0  0  0
   -4.3914    0.3384   -0.0172 O   0  0  0  0  0  0  0  0  0  0  0  0
   -0.4191   -1.7815    0.7002 H   0  0  0  0  0  0  0  0  0  0  0  0
    1.3593   -1.7070   -1.3433 H   0  0  0  0  0  0  0  0  0  0  0  0
    3.8179   -1.7793   -1.4447 H   0  0  0  0  0  0  0  0  0  0  0  0
    5.1686    0.0241   -0.4066 H   0  0  0  0  0  0  0  0  0  0  0  0
    4.0378    1.9066    0.7474 H   0  0  0  0  0  0  0  0  0  0  0  0
    1.5799    1.9909    0.8745 H   0  0  0  0  0  0  0  0  0  0  0  0
   -0.3711    2.1844   -0.9979 H   0  0  0  0  0  0  0  0  0  0  0  0
   -2.8161    2.2773   -0.8994 H   0  0  0  0  0  0  0  0  0  0  0  0
   -4.7046    1.2137   -0.3020 H   0  0  0  0  0  0  0  0  0  0  0  0
  1  2  2  0
  2  3  1  0
  2  4  1  0
  4  5  1  0
  5  6  2  0
  6  7  1  0
  7  8  2  0
  8  9  1  0
  9 10  2  0
 10 11  1  0
 11 12  2  0
  6 13  1  0
 13 14  2  0
 14 15  1  0
 15 16  1  0
 15  4  2  0
 12  7  1  0
  5 17  1  0
  8 18  1  0
  9 19  1  0
 10 20  1  0
 11 21  1  0
 12 22  1  0
 13 23  1  0
 14 24  1  0
 16 25  1  0
M  CHG  2   2   1   3  -1
M  END
$$$$
