
     RDKit          3D

 40 42  0  0  0  0  0  0  0  0999 V2000
   -3.8839   -3.1707    0.4185 C   0  0  0  0  0  0  0  0  0  0  0  0
   -2.9743   -2.1745   -0.1956 C   0  0  0  0  0  0  0  0  0  0  0  0
   -2.9060   -1.6751   -1.4771 C   0  0  0  0  0  0  0  0  0  0  0  0
   -1.8257   -0.7449   -1.5359 C   0  0  0  0  0  0  0  0  0  0  0  0
   -1.3560   -0.0769   -2.7813 C   0  0  0  0  0  0  0  0  0  0  0  0
   -1.2994   -0.6555   -0.2501 C   0  0  0  0  0  0  0  0  0  0  0  0
   -0.2295    0.0891    0.2738 N   0  0  0  0  0  0  0  0  0  0  0  0
    0.4769   -0.5049    1.3341 C   0  0  0  0  0  0  0  0  0  0  0  0
   -0.0559   -1.0052    2.3281 O   0  0  0  0  0  0  0  0  0  0  0  0
    1.9511   -0.6759    1.1583 C   0  0  0  0  0  0  0  0  0  0  0  0
    2.5429   -0.7102   -0.1123 C   0  0  0  0  0  0  0  0  0  0  0  0
    3.9232   -0.8812   -0.2354 C   0  0  0  0  0  0  0  0  0  0  0  0
    4.7138   -1.0287    0.9043 C   0  0  0  0  0  0  0  0  0  0  0  0
    4.1281   -1.0126    2.1699 C   0  0  0  0  0  0  0  0  0  0  0  0
    2.7487   -0.8419    2.2982 C   0  0  0  0  0  0  0  0  0  0  0  0
   -0.1902    1.5219    0.0629 C   0  0  0  0  0  0  0  0  0  0  0  0
   -1.2735    2.2282   -0.4926 C   0  0  0  0  0  0  0  0  0  0  0  0
   -1.2396    3.6163   -0.6784 C   0  0  0  0  0  0  0  0  0  0  0  0
   -0.1230    4.3440   -0.2912 C   0  0  0  0  0  0  0  0  0  0  0  0
    0.9475    3.6841    0.2975 C   0  0  0  0  0  0  0  0  0  0  0  0
    0.9072    2.2949    0.4825 C   0  0  0  0  0  0  0  0  0  0  0  0
   -1.9651   -1.5864    0.5197 N   0  0  0  0  0  0  0  0  0  0  0  0
   -4.4056   -2.7377    1.2781 H   0  0  0  0  0  0  0  0  0  0  0  0
   -4.6376   -3.5089   -0.2997 H   0  0  0  0  0  0  0  0  0  0  0  0
   -3.3220   -4.0464    0.7586 H   0  0  0  0  0  0  0  0  0  0  0  0
   -3.5452   -1.9703   -2.3002 H   0  0  0  0  0  0  0  0  0  0  0  0
   -0.3272    0.2828   -2.6847 H   0  0  0  0  0  0  0  0  0  0  0  0
   -2.0036    0.7683   -3.0333 H   0  0  0  0  0  0  0  0  0  0  0  0
   -1.3776   -0.7799   -3.6209 H   0  0  0  0  0  0  0  0  0  0  0  0
    1.9403   -0.6131   -1.0121 H   0  0  0  0  0  0  0  0  0  0  0  0
    4.3813   -0.9059   -1.2213 H   0  0  0  0  0  0  0  0  0  0  0  0
    5.7881   -1.1656    0.8056 H   0  0  0  0  0  0  0  0  0  0  0  0
    4.7441   -1.1384    3.0569 H   0  0  0  0  0  0  0  0  0  0  0  0
    2.2969   -0.8378    3.2882 H   0  0  0  0  0  0  0  0  0  0  0  0
   -2.1990    1.7242   -0.7556 H   0  0  0  0  0  0  0  0  0  0  0  0
   -2.0984    4.1236   -1.1108 H   0  0  0  0  0  0  0  0  0  0  0  0
   -0.0951    5.4213   -0.4295 H   0  0  0  0  0  0  0  0  0  0  0  0
    1.8190    4.2466    0.6237 H   0  0  0  0  0  0  0  0  0  0  0  0
    1.7736    1.8540    0.9615 H   0  0  0  0  0  0  0  0  0  0  0  0
   -1.7493   -1.7507    1.4977 H   0  0  0  0  0  0  0  0  0  0  0  0
  1  2  1  0
  2  3  2  0
  3  4  1  0
  4  5  1  0
  4  6  2  0
  6  7  1  0
  7  8  1  0
  8  9  2  0
  8 10  1  0
 10 11  2  0
 11 12  1  0
 12 13  2  0
 13 14  1  0
 14 15  2  0
  7 16  1  0
 16 17  2  0
 17 18  1  0
 18 19  2  0
 19 20  1  0
 20 21  2  0
  6 22  1  0
 22  2  1  0
 15 10  1  0
 21 16  1  0
  1 23  1  0
  1 24  1  0
  1 25  1  0
  3 26  1  0
  5 27  1  0
  5 28  1  0
  5 29  1  0
 11 30  1  0
 12 31  1  0
 13 32  1  0
 14 33  1  0
 15 34  1  0
 17 35  1  0
 18 36  1  0
 19 37  1  0
 20 38  1  0
 21 39  1  0
 22 40  1  0
M  END
$$$$
