
     RDKit          3D

 43 45  0  0  0  0  0  0  0  0999 V2000
   -3.5429   -3.7234   -1.2963 C   0  0  0  0  0  0  0  0  0  0  0  0
   -3.1457   -2.6407   -0.3368 C   0  0  0  0  0  0  0  0  0  0  0  0
   -4.0237   -2.2283    0.6680 C   0  0  0  0  0  0  0  0  0  0  0  0
   -3.6306   -1.2566    1.5844 C   0  0  0  0  0  0  0  0  0  0  0  0
   -2.3565   -0.6885    1.4998 C   0  0  0  0  0  0  0  0  0  0  0  0
   -1.4493   -1.0771    0.4983 C   0  0  0  0  0  0  0  0  0  0  0  0
   -0.1360   -0.4923    0.3858 N   0  0  0  0  0  0  0  0  0  0  0  0
    0.9497   -1.2587   -0.0846 C   0  0  0  0  0  0  0  0  0  0  0  0
    0.9985   -2.4909   -0.0491 O   0  0  0  0  0  0  0  0  0  0  0  0
    2.0977   -0.5804   -0.7578 C   0  0  0  0  0  0  0  0  0  0  0  0
    1.9155    0.5220   -1.6032 C   0  0  0  0  0  0  0  0  0  0  0  0
    3.0117    1.0989   -2.2481 C   0  0  0  0  0  0  0  0  0  0  0  0
    4.2882    0.5656   -2.0693 C   0  0  0  0  0  0  0  0  0  0  0  0
    4.4722   -0.5507   -1.2539 C   0  0  0  0  0  0  0  0  0  0  0  0
    3.3792   -1.1288   -0.6069 C   0  0  0  0  0  0  0  0  0  0  0  0
    0.0552    0.7982    0.9008 C   0  0  0  0  0  0  0  0  0  0  0  0
   -0.8679    1.7954    0.6561 N   0  0  0  0  0  0  0  0  0  0  0  0
   -0.4492    2.9859    1.1888 C   0  0  0  0  0  0  0  0  0  0  0  0
   -1.2429    4.2305    1.0494 C   0  0  0  0  0  0  0  0  0  0  0  0
    0.7556    2.7483    1.8110 C   0  0  0  0  0  0  0  0  0  0  0  0
    1.0778    1.3672    1.6516 C   0  0  0  0  0  0  0  0  0  0  0  0
    2.2699    0.7109    2.2558 C   0  0  0  0  0  0  0  0  0  0  0  0
   -1.8620   -2.0739   -0.4019 C   0  0  0  0  0  0  0  0  0  0  0  0
   -3.0514   -3.5878   -2.2647 H   0  0  0  0  0  0  0  0  0  0  0  0
   -3.2654   -4.7026   -0.8938 H   0  0  0  0  0  0  0  0  0  0  0  0
   -4.6227   -3.7082   -1.4764 H   0  0  0  0  0  0  0  0  0  0  0  0
   -5.0122   -2.6737    0.7529 H   0  0  0  0  0  0  0  0  0  0  0  0
   -4.3074   -0.9545    2.3795 H   0  0  0  0  0  0  0  0  0  0  0  0
   -2.0708    0.0282    2.2668 H   0  0  0  0  0  0  0  0  0  0  0  0
    0.9256    0.9352   -1.7735 H   0  0  0  0  0  0  0  0  0  0  0  0
    2.8683    1.9608   -2.8955 H   0  0  0  0  0  0  0  0  0  0  0  0
    5.1394    1.0139   -2.5758 H   0  0  0  0  0  0  0  0  0  0  0  0
    5.4643   -0.9761   -1.1275 H   0  0  0  0  0  0  0  0  0  0  0  0
    3.5247   -2.0085    0.0165 H   0  0  0  0  0  0  0  0  0  0  0  0
   -1.7167    1.6591    0.1236 H   0  0  0  0  0  0  0  0  0  0  0  0
   -2.3136    4.0263    1.1360 H   0  0  0  0  0  0  0  0  0  0  0  0
   -1.0574    4.6916    0.0757 H   0  0  0  0  0  0  0  0  0  0  0  0
   -0.9746    4.9524    1.8264 H   0  0  0  0  0  0  0  0  0  0  0  0
    1.3424    3.4865    2.3452 H   0  0  0  0  0  0  0  0  0  0  0  0
    2.4537    1.1037    3.2615 H   0  0  0  0  0  0  0  0  0  0  0  0
    3.1613    0.9083    1.6533 H   0  0  0  0  0  0  0  0  0  0  0  0
    2.1338   -0.3699    2.3510 H   0  0  0  0  0  0  0  0  0  0  0  0
   -1.1858   -2.4176   -1.1818 H   0  0  0  0  0  0  0  0  0  0  0  0
  1  2  1  0
  2  3  2  0
  3  4  1  0
  4  5  2  0
  5  6  1  0
  6  7  1  0
  7  8  1  0
  8  9  2  0
  8 10  1  0
 10 11  2  0
 11 12  1  0
 12 13  2  0
 13 14  1  0
 14 15  2  0
  7 16  1  0
 16 17  1  0
 17 18  1  0
 18 19  1  0
 18 20  2  0
 20 21  1  0
 21 22  1  0
  6 23  2  0
 23  2  1  0
 15 10  1  0
 21 16  2  0
  1 24  1  0
  1 25  1  0
  1 26  1  0
  3 27  1  0
  4 28  1  0
  5 29  1  0
 11 30  1  0
 12 31  1  0
 13 32  1  0
 14 33  1  0
 15 34  1  0
 17 35  1  0
 19 36  1  0
 19 37  1  0
 19 38  1  0
 20 39  1  0
 22 40  1  0
 22 41  1  0
 22 42  1  0
 23 43  1  0
M  END
$$$$
