
     RDKit          3D

 26 27  0  0  0  0  0  0  0  0999 V2000
    2.9098    2.9341    0.4003 O   0  0  0  0  0  0  0  0  0  0  0  0
    3.4707    1.8317    0.3354 N   0  0  0  0  0  0  0  0  0  0  0  0
    4.6999    1.6653    0.3966 O   0  0  0  0  0  0  0  0  0  0  0  0
    2.6363    0.6398    0.1700 C   0  0  0  0  0  0  0  0  0  0  0  0
    1.2377    0.7894    0.1633 C   0  0  0  0  0  0  0  0  0  0  0  0
    0.3971   -0.3255    0.0037 C   0  0  0  0  0  0  0  0  0  0  0  0
   -1.0679   -0.1761   -0.0026 C   0  0  0  0  0  0  0  0  0  0  0  0
   -1.8769   -0.9438    0.8527 C   0  0  0  0  0  0  0  0  0  0  0  0
   -3.2669   -0.8016    0.8480 C   0  0  0  0  0  0  0  0  0  0  0  0
   -3.8627    0.1098   -0.0127 C   0  0  0  0  0  0  0  0  0  0  0  0
   -5.2210    0.2163    0.0151 O   0  0  0  0  0  0  0  0  0  0  0  0
   -3.0913    0.8836   -0.8710 C   0  0  0  0  0  0  0  0  0  0  0  0
   -1.7001    0.7392   -0.8634 C   0  0  0  0  0  0  0  0  0  0  0  0
    0.9954   -1.5876   -0.1484 C   0  0  0  0  0  0  0  0  0  0  0  0
    2.3858   -1.7371   -0.1411 C   0  0  0  0  0  0  0  0  0  0  0  0
    3.2113   -0.6273    0.0189 C   0  0  0  0  0  0  0  0  0  0  0  0
    4.5530   -0.8936    0.0110 O   0  0  0  0  0  0  0  0  0  0  0  0
    0.7893    1.7738    0.2956 H   0  0  0  0  0  0  0  0  0  0  0  0
   -1.4282   -1.6556    1.5428 H   0  0  0  0  0  0  0  0  0  0  0  0
   -3.8803   -1.3990    1.5167 H   0  0  0  0  0  0  0  0  0  0  0  0
   -5.4939    0.8888   -0.6303 H   0  0  0  0  0  0  0  0  0  0  0  0
   -3.5471    1.5971   -1.5501 H   0  0  0  0  0  0  0  0  0  0  0  0
   -1.1093    1.3437   -1.5492 H   0  0  0  0  0  0  0  0  0  0  0  0
    0.3761   -2.4733   -0.2864 H   0  0  0  0  0  0  0  0  0  0  0  0
    2.8236   -2.7256   -0.2633 H   0  0  0  0  0  0  0  0  0  0  0  0
    5.0596   -0.0664    0.1550 H   0  0  0  0  0  0  0  0  0  0  0  0
  1  2  2  0
  2  3  1  0
  2  4  1  0
  4  5  1  0
  5  6  2  0
  6  7  1  0
  7  8  1  0
  8  9  2  0
  9 10  1  0
 10 11  1  0
 10 12  2  0
 12 13  1  0
  6 14  1  0
 14 15  2  0
 15 16  1  0
 16 17  1  0
 16  4  2  0
 13  7  2  0
  5 18  1  0
  8 19  1  0
  9 20  1  0
 11 21  1  0
 12 22  1  0
 13 23  1  0
 14 24  1  0
 15 25  1  0
 17 26  1  0
M  CHG  2   2   1   3  -1
M  END
$$$$
