
     RDKit          3D

 48 49  0  0  0  0  0  0  0  0999 V2000
    7.1683   -0.5116    2.5747 C   0  0  0  0  0  0  0  0  0  0  0  0
    6.3396   -0.2651    1.3692 C   0  0  0  0  0  0  0  0  0  0  0  0
    6.6994    0.0093    0.0688 C   0  0  0  0  0  0  0  0  0  0  0  0
    5.5091    0.1571   -0.6976 C   0  0  0  0  0  0  0  0  0  0  0  0
    5.4540    0.4713   -2.1515 C   0  0  0  0  0  0  0  0  0  0  0  0
    4.4395   -0.0347    0.1694 C   0  0  0  0  0  0  0  0  0  0  0  0
    3.0004   -0.0127   -0.0702 C   0  0  0  0  0  0  0  0  0  0  0  0
    2.4221   -0.8004   -1.0662 C   0  0  0  0  0  0  0  0  0  0  0  0
    1.0448   -0.7539   -1.2736 C   0  0  0  0  0  0  0  0  0  0  0  0
    0.2886    0.0864   -0.4735 C   0  0  0  0  0  0  0  0  0  0  0  0
   -1.0734    0.1016   -0.7051 O   0  0  0  0  0  0  0  0  0  0  0  0
   -1.7468    1.1199    0.0413 C   0  0  0  0  0  0  0  0  0  0  0  0
   -3.2451    1.0857   -0.3079 C   0  0  0  0  0  0  0  0  0  0  0  0
   -3.4483    1.4216   -1.6877 O   0  0  0  0  0  0  0  0  0  0  0  0
   -3.8230   -0.3215   -0.0296 C   0  0  0  0  0  0  0  0  0  0  0  0
   -5.3747   -0.4290   -0.1249 N   0  0  0  0  0  0  0  0  0  0  0  0
   -5.7475   -1.8953    0.0958 C   0  0  0  0  0  0  0  0  0  0  0  0
   -5.8770   -0.0136   -1.5062 C   0  0  0  0  0  0  0  0  0  0  0  0
   -6.0589    0.4129    0.9381 C   0  0  0  0  0  0  0  0  0  0  0  0
    0.8009    0.8564    0.5075 N   0  0  0  0  0  0  0  0  0  0  0  0
    2.1460    0.7940    0.6782 C   0  0  0  0  0  0  0  0  0  0  0  0
    4.9697   -0.2877    1.4166 N   0  0  0  0  0  0  0  0  0  0  0  0
    6.9540   -1.5001    2.9932 H   0  0  0  0  0  0  0  0  0  0  0  0
    6.9640    0.2421    3.3418 H   0  0  0  0  0  0  0  0  0  0  0  0
    8.2352   -0.4697    2.3331 H   0  0  0  0  0  0  0  0  0  0  0  0
    7.7158    0.0967   -0.2966 H   0  0  0  0  0  0  0  0  0  0  0  0
    5.2232   -0.4305   -2.7271 H   0  0  0  0  0  0  0  0  0  0  0  0
    4.6882    1.2252   -2.3599 H   0  0  0  0  0  0  0  0  0  0  0  0
    6.4129    0.8638   -2.5053 H   0  0  0  0  0  0  0  0  0  0  0  0
    3.0380   -1.4550   -1.6782 H   0  0  0  0  0  0  0  0  0  0  0  0
    0.5810   -1.3572   -2.0453 H   0  0  0  0  0  0  0  0  0  0  0  0
   -1.3398    2.1034   -0.2263 H   0  0  0  0  0  0  0  0  0  0  0  0
   -1.6300    0.9444    1.1183 H   0  0  0  0  0  0  0  0  0  0  0  0
   -3.7523    1.8470    0.2913 H   0  0  0  0  0  0  0  0  0  0  0  0
   -2.7690    2.0714   -1.9535 H   0  0  0  0  0  0  0  0  0  0  0  0
   -3.4350   -1.0425   -0.7592 H   0  0  0  0  0  0  0  0  0  0  0  0
   -3.5582   -0.6549    0.9806 H   0  0  0  0  0  0  0  0  0  0  0  0
   -5.3832   -2.1994    1.0816 H   0  0  0  0  0  0  0  0  0  0  0  0
   -6.8366   -1.9903    0.0479 H   0  0  0  0  0  0  0  0  0  0  0  0
   -5.2783   -2.4947   -0.6900 H   0  0  0  0  0  0  0  0  0  0  0  0
   -5.8107    1.0725   -1.6007 H   0  0  0  0  0  0  0  0  0  0  0  0
   -5.2787   -0.5261   -2.2646 H   0  0  0  0  0  0  0  0  0  0  0  0
   -6.9271   -0.3114   -1.5905 H   0  0  0  0  0  0  0  0  0  0  0  0
   -5.6578    0.1298    1.9154 H   0  0  0  0  0  0  0  0  0  0  0  0
   -7.1347    0.2165    0.8958 H   0  0  0  0  0  0  0  0  0  0  0  0
   -5.8696    1.4696    0.7351 H   0  0  0  0  0  0  0  0  0  0  0  0
    2.5342    1.4470    1.4563 H   0  0  0  0  0  0  0  0  0  0  0  0
    4.4269   -0.4884    2.2457 H   0  0  0  0  0  0  0  0  0  0  0  0
  1  2  1  0
  2  3  2  0
  3  4  1  0
  4  5  1  0
  4  6  2  0
  6  7  1  0
  7  8  2  0
  8  9  1  0
  9 10  2  0
 10 11  1  0
 11 12  1  0
 12 13  1  0
 13 14  1  0
 13 15  1  0
 15 16  1  0
 16 17  1  0
 16 18  1  0
 16 19  1  0
 10 20  1  0
 20 21  2  0
  6 22  1  0
 22  2  1  0
 21  7  1  0
  1 23  1  0
  1 24  1  0
  1 25  1  0
  3 26  1  0
  5 27  1  0
  5 28  1  0
  5 29  1  0
  8 30  1  0
  9 31  1  0
 12 32  1  0
 12 33  1  0
 13 34  1  0
 14 35  1  0
 15 36  1  0
 15 37  1  0
 17 38  1  0
 17 39  1  0
 17 40  1  0
 18 41  1  0
 18 42  1  0
 18 43  1  0
 19 44  1  0
 19 45  1  0
 19 46  1  0
 21 47  1  0
 22 48  1  0
M  CHG  1  16   1
M  END
$$$$
