
     RDKit          3D

 38 38  0  0  0  0  0  0  0  0999 V2000
   -3.8041    0.9455    1.4062 C   0  0  0  0  0  0  0  0  0  0  0  0
   -3.5947    0.5160   -0.0362 N   0  0  0  0  0  0  0  0  0  0  0  0
   -4.4729   -0.6946   -0.3415 C   0  0  0  0  0  0  0  0  0  0  0  0
   -4.0252    1.6604   -0.9549 C   0  0  0  0  0  0  0  0  0  0  0  0
   -2.0926    0.2230   -0.3275 C   0  0  0  0  0  0  0  0  0  0  0  0
   -1.4832   -0.9551    0.4713 C   0  0  0  0  0  0  0  0  0  0  0  0
   -2.1077   -2.1837    0.0873 O   0  0  0  0  0  0  0  0  0  0  0  0
    0.0275   -1.0342    0.2018 C   0  0  0  0  0  0  0  0  0  0  0  0
    0.6445    0.1589    0.6897 O   0  0  0  0  0  0  0  0  0  0  0  0
    2.0119    0.1693    0.4915 C   0  0  0  0  0  0  0  0  0  0  0  0
    2.7123    1.2334    1.0304 C   0  0  0  0  0  0  0  0  0  0  0  0
    4.0916    1.2774    0.8380 C   0  0  0  0  0  0  0  0  0  0  0  0
    4.7298    0.2687    0.1166 C   0  0  0  0  0  0  0  0  0  0  0  0
    6.0789    0.4110   -0.0100 O   0  0  0  0  0  0  0  0  0  0  0  0
    6.7716   -0.5910   -0.7377 C   0  0  0  0  0  0  0  0  0  0  0  0
    6.3224   -0.6515   -2.0088 F   0  0  0  0  0  0  0  0  0  0  0  0
    8.0850   -0.2878   -0.7605 F   0  0  0  0  0  0  0  0  0  0  0  0
    6.6184   -1.7968   -0.1519 F   0  0  0  0  0  0  0  0  0  0  0  0
    3.9320   -0.7534   -0.3859 C   0  0  0  0  0  0  0  0  0  0  0  0
    2.5867   -0.8227   -0.2159 N   0  0  0  0  0  0  0  0  0  0  0  0
   -4.8490    1.2468    1.5291 H   0  0  0  0  0  0  0  0  0  0  0  0
   -3.5843    0.1027    2.0659 H   0  0  0  0  0  0  0  0  0  0  0  0
   -3.1372    1.7861    1.6181 H   0  0  0  0  0  0  0  0  0  0  0  0
   -4.3386   -1.4434    0.4420 H   0  0  0  0  0  0  0  0  0  0  0  0
   -5.5177   -0.3674   -0.3395 H   0  0  0  0  0  0  0  0  0  0  0  0
   -4.2023   -1.0834   -1.3270 H   0  0  0  0  0  0  0  0  0  0  0  0
   -3.3963    2.5300   -0.7420 H   0  0  0  0  0  0  0  0  0  0  0  0
   -5.0753    1.8938   -0.7542 H   0  0  0  0  0  0  0  0  0  0  0  0
   -3.8982    1.3378   -1.9926 H   0  0  0  0  0  0  0  0  0  0  0  0
   -2.0353    0.0123   -1.4025 H   0  0  0  0  0  0  0  0  0  0  0  0
   -1.5604    1.1582   -0.1199 H   0  0  0  0  0  0  0  0  0  0  0  0
   -1.6460   -0.8068    1.5432 H   0  0  0  0  0  0  0  0  0  0  0  0
   -1.6302   -2.9182    0.5207 H   0  0  0  0  0  0  0  0  0  0  0  0
    0.4354   -1.9139    0.7173 H   0  0  0  0  0  0  0  0  0  0  0  0
    0.1941   -1.1549   -0.8771 H   0  0  0  0  0  0  0  0  0  0  0  0
    2.2065    2.0108    1.5908 H   0  0  0  0  0  0  0  0  0  0  0  0
    4.6693    2.1003    1.2534 H   0  0  0  0  0  0  0  0  0  0  0  0
    4.3335   -1.5835   -0.9602 H   0  0  0  0  0  0  0  0  0  0  0  0
  1  2  1  0
  2  3  1  0
  2  4  1  0
  2  5  1  0
  5  6  1  0
  6  7  1  0
  6  8  1  0
  8  9  1  0
  9 10  1  0
 10 11  2  0
 11 12  1  0
 12 13  2  0
 13 14  1  0
 14 15  1  0
 15 16  1  0
 15 17  1  0
 15 18  1  0
 13 19  1  0
 19 20  2  0
 20 10  1  0
  1 21  1  0
  1 22  1  0
  1 23  1  0
  3 24  1  0
  3 25  1  0
  3 26  1  0
  4 27  1  0
  4 28  1  0
  4 29  1  0
  5 30  1  0
  5 31  1  0
  6 32  1  0
  7 33  1  0
  8 34  1  0
  8 35  1  0
 11 36  1  0
 12 37  1  0
 19 38  1  0
M  CHG  1   2   1
M  END
$$$$
