
     RDKit          3D

 32 32  0  0  0  0  0  0  0  0999 V2000
    1.0507   -2.9657   -1.1522 N   0  0  0  0  0  0  0  0  0  0  0  0
    0.7048   -2.0047   -0.6010 C   0  0  0  0  0  0  0  0  0  0  0  0
    0.2486   -0.8258    0.0734 C   0  0  0  0  0  0  0  0  0  0  0  0
    1.0573    0.2152    0.3570 C   0  0  0  0  0  0  0  0  0  0  0  0
    2.4772    0.3043    0.0002 C   0  0  0  0  0  0  0  0  0  0  0  0
    2.8758    0.4201   -1.3375 C   0  0  0  0  0  0  0  0  0  0  0  0
    4.2307    0.5113   -1.6630 C   0  0  0  0  0  0  0  0  0  0  0  0
    5.1941    0.4942   -0.6549 C   0  0  0  0  0  0  0  0  0  0  0  0
    4.7963    0.3892    0.6766 C   0  0  0  0  0  0  0  0  0  0  0  0
    6.1010    0.3718    2.0453 Br  0  0  0  0  0  0  0  0  0  0  0  0
    3.4446    0.2972    1.0106 C   0  0  0  0  0  0  0  0  0  0  0  0
   -1.1717   -0.7879    0.4593 C   0  0  0  0  0  0  0  0  0  0  0  0
   -1.4686   -1.4176    1.6611 N   0  0  0  0  0  0  0  0  0  0  0  0
   -2.0836   -0.1635   -0.3343 C   0  0  0  0  0  0  0  0  0  0  0  0
   -1.7057    0.4611   -1.5709 C   0  0  0  0  0  0  0  0  0  0  0  0
   -1.3829    0.9831   -2.5553 N   0  0  0  0  0  0  0  0  0  0  0  0
   -3.5160   -0.0696    0.0146 C   0  0  0  0  0  0  0  0  0  0  0  0
   -4.3061   -1.0951   -0.4933 N   0  0  0  0  0  0  0  0  0  0  0  0
   -3.9699    0.9636    0.7729 C   0  0  0  0  0  0  0  0  0  0  0  0
   -3.0910    1.9645    1.2803 C   0  0  0  0  0  0  0  0  0  0  0  0
   -2.3333    2.7371    1.6985 N   0  0  0  0  0  0  0  0  0  0  0  0
   -5.3467    1.0666    1.1166 C   0  0  0  0  0  0  0  0  0  0  0  0
   -6.4686    1.1105    1.4094 N   0  0  0  0  0  0  0  0  0  0  0  0
    0.6763    1.0842    0.8923 H   0  0  0  0  0  0  0  0  0  0  0  0
    2.1389    0.4441   -2.1390 H   0  0  0  0  0  0  0  0  0  0  0  0
    4.5337    0.5960   -2.7040 H   0  0  0  0  0  0  0  0  0  0  0  0
    6.2465    0.5645   -0.9171 H   0  0  0  0  0  0  0  0  0  0  0  0
    3.1490    0.2166    2.0535 H   0  0  0  0  0  0  0  0  0  0  0  0
   -0.6910   -1.4812    2.3188 H   0  0  0  0  0  0  0  0  0  0  0  0
   -2.3447   -1.1722    2.1107 H   0  0  0  0  0  0  0  0  0  0  0  0
   -3.8203   -1.9800   -0.6519 H   0  0  0  0  0  0  0  0  0  0  0  0
   -5.2257   -1.2317   -0.0734 H   0  0  0  0  0  0  0  0  0  0  0  0
  1  2  3  0
  2  3  1  0
  3  4  2  3
  4  5  1  0
  5  6  2  0
  6  7  1  0
  7  8  2  0
  8  9  1  0
  9 10  1  0
  9 11  2  0
  3 12  1  0
 12 13  1  0
 12 14  2  3
 14 15  1  0
 15 16  3  0
 14 17  1  0
 17 18  1  0
 17 19  2  3
 19 20  1  0
 20 21  3  0
 19 22  1  0
 22 23  3  0
 11  5  1  0
  4 24  1  0
  6 25  1  0
  7 26  1  0
  8 27  1  0
 11 28  1  0
 13 29  1  0
 13 30  1  0
 18 31  1  0
 18 32  1  0
M  END
$$$$
