
     RDKit          3D

 39 41  0  0  0  0  0  0  0  0999 V2000
   -1.2366   -1.2448    3.7267 C   0  0  0  0  0  0  0  0  0  0  0  0
   -1.3272   -0.9513    2.2767 C   0  0  0  0  0  0  0  0  0  0  0  0
   -2.2319   -1.3610    1.3245 C   0  0  0  0  0  0  0  0  0  0  0  0
   -1.8571   -0.7832    0.0756 C   0  0  0  0  0  0  0  0  0  0  0  0
   -2.5629   -1.0340   -1.2108 C   0  0  0  0  0  0  0  0  0  0  0  0
   -0.7177   -0.0167    0.3053 C   0  0  0  0  0  0  0  0  0  0  0  0
    0.0739    0.7691   -0.5536 N   0  0  0  0  0  0  0  0  0  0  0  0
    1.4583    0.8888   -0.3371 C   0  0  0  0  0  0  0  0  0  0  0  0
    2.1314    1.8916   -0.5830 O   0  0  0  0  0  0  0  0  0  0  0  0
    2.2131   -0.2853    0.1953 C   0  0  0  0  0  0  0  0  0  0  0  0
    3.2632   -0.0546    1.0942 C   0  0  0  0  0  0  0  0  0  0  0  0
    3.9973   -1.1268    1.6029 C   0  0  0  0  0  0  0  0  0  0  0  0
    3.6945   -2.4291    1.2058 C   0  0  0  0  0  0  0  0  0  0  0  0
    2.6661   -2.6621    0.2924 C   0  0  0  0  0  0  0  0  0  0  0  0
    1.9307   -1.5926   -0.2214 C   0  0  0  0  0  0  0  0  0  0  0  0
   -0.6111    1.6634   -1.4495 C   0  0  0  0  0  0  0  0  0  0  0  0
    0.0689    2.2520   -2.5195 C   0  0  0  0  0  0  0  0  0  0  0  0
   -0.5992    3.1253   -3.3800 C   0  0  0  0  0  0  0  0  0  0  0  0
   -1.9392    3.4006   -3.1637 C   0  0  0  0  0  0  0  0  0  0  0  0
   -2.5557    2.7820   -2.0954 C   0  0  0  0  0  0  0  0  0  0  0  0
   -1.9294    1.9292   -1.2551 N   0  0  0  0  0  0  0  0  0  0  0  0
   -0.4208   -0.1382    1.6475 N   0  0  0  0  0  0  0  0  0  0  0  0
   -1.3317   -0.3246    4.3119 H   0  0  0  0  0  0  0  0  0  0  0  0
   -2.0315   -1.9295    4.0392 H   0  0  0  0  0  0  0  0  0  0  0  0
   -0.2750   -1.7103    3.9656 H   0  0  0  0  0  0  0  0  0  0  0  0
   -3.0763   -2.0162    1.4994 H   0  0  0  0  0  0  0  0  0  0  0  0
   -2.9319   -2.0648   -1.2488 H   0  0  0  0  0  0  0  0  0  0  0  0
   -3.4235   -0.3664   -1.3143 H   0  0  0  0  0  0  0  0  0  0  0  0
   -1.8997   -0.8962   -2.0700 H   0  0  0  0  0  0  0  0  0  0  0  0
    3.5134    0.9608    1.3951 H   0  0  0  0  0  0  0  0  0  0  0  0
    4.8100   -0.9462    2.3023 H   0  0  0  0  0  0  0  0  0  0  0  0
    4.2679   -3.2644    1.6012 H   0  0  0  0  0  0  0  0  0  0  0  0
    2.4388   -3.6776   -0.0232 H   0  0  0  0  0  0  0  0  0  0  0  0
    1.1416   -1.7895   -0.9431 H   0  0  0  0  0  0  0  0  0  0  0  0
    1.1146    2.0388   -2.7145 H   0  0  0  0  0  0  0  0  0  0  0  0
   -0.0680    3.5848   -4.2086 H   0  0  0  0  0  0  0  0  0  0  0  0
   -2.4873    4.0773   -3.8086 H   0  0  0  0  0  0  0  0  0  0  0  0
   -3.6046    2.9570   -1.8742 H   0  0  0  0  0  0  0  0  0  0  0  0
    0.3343    0.3447    2.1129 H   0  0  0  0  0  0  0  0  0  0  0  0
  1  2  1  0
  2  3  2  0
  3  4  1  0
  4  5  1  0
  4  6  2  0
  6  7  1  0
  7  8  1  0
  8  9  2  0
  8 10  1  0
 10 11  2  0
 11 12  1  0
 12 13  2  0
 13 14  1  0
 14 15  2  0
  7 16  1  0
 16 17  2  0
 17 18  1  0
 18 19  2  0
 19 20  1  0
 20 21  2  0
  6 22  1  0
 22  2  1  0
 15 10  1  0
 21 16  1  0
  1 23  1  0
  1 24  1  0
  1 25  1  0
  3 26  1  0
  5 27  1  0
  5 28  1  0
  5 29  1  0
 11 30  1  0
 12 31  1  0
 13 32  1  0
 14 33  1  0
 15 34  1  0
 17 35  1  0
 18 36  1  0
 19 37  1  0
 20 38  1  0
 22 39  1  0
M  END
$$$$
