
     RDKit          3D

 42 44  0  0  0  0  0  0  0  0999 V2000
   -2.9757    3.1179   -0.2259 C   0  0  0  0  0  0  0  0  0  0  0  0
   -3.0295    1.6378   -0.2830 C   0  0  0  0  0  0  0  0  0  0  0  0
   -3.8482    0.7831   -0.9880 C   0  0  0  0  0  0  0  0  0  0  0  0
   -3.4638   -0.5558   -0.6811 C   0  0  0  0  0  0  0  0  0  0  0  0
   -4.0802   -1.7786   -1.2584 C   0  0  0  0  0  0  0  0  0  0  0  0
   -2.4056   -0.4753    0.2121 C   0  0  0  0  0  0  0  0  0  0  0  0
   -1.6577   -1.4202    0.8632 N   0  0  0  0  0  0  0  0  0  0  0  0
   -2.3757   -2.5786    1.4078 C   0  0  0  0  0  0  0  0  0  0  0  0
   -0.2906   -1.4210    0.9663 C   0  0  0  0  0  0  0  0  0  0  0  0
    0.5926   -2.1620    1.7271 C   0  0  0  0  0  0  0  0  0  0  0  0
    1.9067   -1.7165    1.4346 C   0  0  0  0  0  0  0  0  0  0  0  0
    1.8117   -0.7104    0.4922 C   0  0  0  0  0  0  0  0  0  0  0  0
    2.8514    0.0942   -0.1451 C   0  0  0  0  0  0  0  0  0  0  0  0
    3.8425   -0.5673   -0.8881 C   0  0  0  0  0  0  0  0  0  0  0  0
    4.8689    0.1581   -1.4949 C   0  0  0  0  0  0  0  0  0  0  0  0
    5.8382   -0.4621   -2.2258 O   0  0  0  0  0  0  0  0  0  0  0  0
    4.9437    1.5422   -1.3742 C   0  0  0  0  0  0  0  0  0  0  0  0
    3.9775    2.2216   -0.6361 C   0  0  0  0  0  0  0  0  0  0  0  0
    2.9409    1.4927   -0.0346 C   0  0  0  0  0  0  0  0  0  0  0  0
    1.9707    2.2424    0.7408 N   0  0  0  0  0  0  0  0  0  0  0  0
    0.8051    2.2753    0.3182 O   0  0  0  0  0  0  0  0  0  0  0  0
    2.3886    2.8349    1.7443 O   0  0  0  0  0  0  0  0  0  0  0  0
    0.4770   -0.5977    0.1753 N   0  0  0  0  0  0  0  0  0  0  0  0
   -2.1695    0.8602    0.4485 N   0  0  0  0  0  0  0  0  0  0  0  0
   -3.7747    3.5628   -0.8275 H   0  0  0  0  0  0  0  0  0  0  0  0
   -2.0179    3.4822   -0.6110 H   0  0  0  0  0  0  0  0  0  0  0  0
   -3.0918    3.4692    0.8043 H   0  0  0  0  0  0  0  0  0  0  0  0
   -4.6396    1.0859   -1.6624 H   0  0  0  0  0  0  0  0  0  0  0  0
   -3.3195   -2.5320   -1.4858 H   0  0  0  0  0  0  0  0  0  0  0  0
   -4.8028   -2.2094   -0.5587 H   0  0  0  0  0  0  0  0  0  0  0  0
   -4.6071   -1.5489   -2.1905 H   0  0  0  0  0  0  0  0  0  0  0  0
   -2.0167   -2.8360    2.4109 H   0  0  0  0  0  0  0  0  0  0  0  0
   -2.2470   -3.4496    0.7556 H   0  0  0  0  0  0  0  0  0  0  0  0
   -3.4494   -2.3861    1.5187 H   0  0  0  0  0  0  0  0  0  0  0  0
    0.3282   -2.9281    2.4428 H   0  0  0  0  0  0  0  0  0  0  0  0
    2.8217   -2.0800    1.8851 H   0  0  0  0  0  0  0  0  0  0  0  0
    3.8019   -1.6492   -0.9906 H   0  0  0  0  0  0  0  0  0  0  0  0
    5.6690   -1.4193   -2.2337 H   0  0  0  0  0  0  0  0  0  0  0  0
    5.7560    2.0858   -1.8505 H   0  0  0  0  0  0  0  0  0  0  0  0
    4.0389    3.3024   -0.5303 H   0  0  0  0  0  0  0  0  0  0  0  0
    0.0922    0.0310   -0.5167 H   0  0  0  0  0  0  0  0  0  0  0  0
   -1.4603    1.2044    1.0820 H   0  0  0  0  0  0  0  0  0  0  0  0
  1  2  1  0
  2  3  2  0
  3  4  1  0
  4  5  1  0
  4  6  2  0
  6  7  1  0
  7  8  1  0
  7  9  1  0
  9 10  2  0
 10 11  1  0
 11 12  2  0
 12 13  1  0
 13 14  1  0
 14 15  2  0
 15 16  1  0
 15 17  1  0
 17 18  2  0
 18 19  1  0
 19 20  1  0
 20 21  2  0
 20 22  1  0
 12 23  1  0
  6 24  1  0
 24  2  1  0
 23  9  1  0
 19 13  2  0
  1 25  1  0
  1 26  1  0
  1 27  1  0
  3 28  1  0
  5 29  1  0
  5 30  1  0
  5 31  1  0
  8 32  1  0
  8 33  1  0
  8 34  1  0
 10 35  1  0
 11 36  1  0
 14 37  1  0
 16 38  1  0
 17 39  1  0
 18 40  1  0
 23 41  1  0
 24 42  1  0
M  CHG  2  20   1  22  -1
M  END
$$$$
