
     RDKit          3D

 35 36  0  0  0  0  0  0  0  0999 V2000
    5.1480    1.6092   -1.0671 C   0  0  0  0  0  0  0  0  0  0  0  0
    4.0949    0.7152   -0.5266 C   0  0  0  0  0  0  0  0  0  0  0  0
    4.1859   -0.3618    0.3267 C   0  0  0  0  0  0  0  0  0  0  0  0
    2.8722   -0.8682    0.5471 C   0  0  0  0  0  0  0  0  0  0  0  0
    2.5437   -2.0464    1.3958 C   0  0  0  0  0  0  0  0  0  0  0  0
    2.0044   -0.0627   -0.1782 C   0  0  0  0  0  0  0  0  0  0  0  0
    0.6033   -0.0032   -0.3831 C   0  0  0  0  0  0  0  0  0  0  0  0
   -0.2600   -0.3545    0.5791 C   0  0  0  0  0  0  0  0  0  0  0  0
   -1.7098   -0.3030    0.3656 C   0  0  0  0  0  0  0  0  0  0  0  0
   -2.3576    0.9408    0.3055 C   0  0  0  0  0  0  0  0  0  0  0  0
   -3.7485    1.0155    0.1138 C   0  0  0  0  0  0  0  0  0  0  0  0
   -4.4596    2.3144    0.0401 C   0  0  0  0  0  0  0  0  0  0  0  0
   -5.6565    2.4677   -0.1154 O   0  0  0  0  0  0  0  0  0  0  0  0
   -3.6323    3.3695    0.1606 O   0  0  0  0  0  0  0  0  0  0  0  0
   -4.5014   -0.1567   -0.0133 C   0  0  0  0  0  0  0  0  0  0  0  0
   -3.8565   -1.3831    0.0460 C   0  0  0  0  0  0  0  0  0  0  0  0
   -4.5943   -2.5261   -0.0835 O   0  0  0  0  0  0  0  0  0  0  0  0
   -2.4756   -1.4660    0.2281 C   0  0  0  0  0  0  0  0  0  0  0  0
   -1.9378   -2.7283    0.2489 O   0  0  0  0  0  0  0  0  0  0  0  0
    2.7695    0.8714   -0.8445 N   0  0  0  0  0  0  0  0  0  0  0  0
    5.9208    1.0234   -1.5760 H   0  0  0  0  0  0  0  0  0  0  0  0
    5.6186    2.1764   -0.2569 H   0  0  0  0  0  0  0  0  0  0  0  0
    4.7404    2.3235   -1.7879 H   0  0  0  0  0  0  0  0  0  0  0  0
    5.1037   -0.7490    0.7520 H   0  0  0  0  0  0  0  0  0  0  0  0
    1.7748   -2.6658    0.9229 H   0  0  0  0  0  0  0  0  0  0  0  0
    2.1827   -1.7223    2.3775 H   0  0  0  0  0  0  0  0  0  0  0  0
    3.4266   -2.6768    1.5505 H   0  0  0  0  0  0  0  0  0  0  0  0
    0.2313    0.3594   -1.3392 H   0  0  0  0  0  0  0  0  0  0  0  0
    0.0624   -0.6938    1.5587 H   0  0  0  0  0  0  0  0  0  0  0  0
   -1.7754    1.8544    0.4147 H   0  0  0  0  0  0  0  0  0  0  0  0
   -4.2331    4.1424    0.0994 H   0  0  0  0  0  0  0  0  0  0  0  0
   -5.5780   -0.1183   -0.1593 H   0  0  0  0  0  0  0  0  0  0  0  0
   -3.9430   -3.2514   -0.0048 H   0  0  0  0  0  0  0  0  0  0  0  0
   -0.9675   -2.6428    0.2640 H   0  0  0  0  0  0  0  0  0  0  0  0
    2.4036    1.5970   -1.4452 H   0  0  0  0  0  0  0  0  0  0  0  0
  1  2  1  0
  2  3  2  0
  3  4  1  0
  4  5  1  0
  4  6  2  0
  6  7  1  0
  7  8  2  3
  8  9  1  0
  9 10  1  0
 10 11  2  0
 11 12  1  0
 12 13  2  0
 12 14  1  0
 11 15  1  0
 15 16  2  0
 16 17  1  0
 16 18  1  0
 18 19  1  0
  6 20  1  0
 20  2  1  0
 18  9  2  0
  1 21  1  0
  1 22  1  0
  1 23  1  0
  3 24  1  0
  5 25  1  0
  5 26  1  0
  5 27  1  0
  7 28  1  0
  8 29  1  0
 10 30  1  0
 14 31  1  0
 15 32  1  0
 17 33  1  0
 19 34  1  0
 20 35  1  0
M  END
$$$$
