
     RDKit          3D

 46 49  0  0  0  0  0  0  0  0999 V2000
    5.3186   -0.1102   -1.4325 C   0  0  0  0  0  0  0  0  0  0  0  0
    4.3798   -0.4185   -0.3043 C   0  0  0  0  0  0  0  0  0  0  0  0
    4.8373   -1.0806    0.8403 C   0  0  0  0  0  0  0  0  0  0  0  0
    3.9558   -1.3873    1.8767 C   0  0  0  0  0  0  0  0  0  0  0  0
    2.6078   -1.0412    1.7740 C   0  0  0  0  0  0  0  0  0  0  0  0
    2.1322   -0.3812    0.6360 C   0  0  0  0  0  0  0  0  0  0  0  0
    0.6993   -0.0850    0.5292 C   0  0  0  0  0  0  0  0  0  0  0  0
    0.1259    1.1191    0.3759 C   0  0  0  0  0  0  0  0  0  0  0  0
    0.8282    2.4565    0.3684 C   0  0  0  0  0  0  0  0  0  0  0  0
    2.0239    2.6744    0.3787 O   0  0  0  0  0  0  0  0  0  0  0  0
   -0.1972    3.3885    0.3585 N   0  0  0  0  0  0  0  0  0  0  0  0
   -0.0307    4.8154    0.3682 C   0  0  0  0  0  0  0  0  0  0  0  0
   -1.4534    2.7753    0.3271 C   0  0  0  0  0  0  0  0  0  0  0  0
   -2.6105    3.4477    0.3185 N   0  0  0  0  0  0  0  0  0  0  0  0
   -3.6919    2.6610    0.2814 C   0  0  0  0  0  0  0  0  0  0  0  0
   -3.6953    1.3166    0.2351 N   0  0  0  0  0  0  0  0  0  0  0  0
   -2.4879    0.7014    0.2069 C   0  0  0  0  0  0  0  0  0  0  0  0
   -2.5984   -0.7431    0.0566 C   0  0  0  0  0  0  0  0  0  0  0  0
   -3.3585   -1.4873    0.9316 N   0  0  0  0  0  0  0  0  0  0  0  0
   -3.2971   -2.8184    0.6096 C   0  0  0  0  0  0  0  0  0  0  0  0
   -3.9920   -3.8495    1.4172 C   0  0  0  0  0  0  0  0  0  0  0  0
   -2.5420   -2.9249   -0.5375 C   0  0  0  0  0  0  0  0  0  0  0  0
   -2.1250   -1.6164   -0.9169 C   0  0  0  0  0  0  0  0  0  0  0  0
   -1.3381   -1.2910   -2.1382 C   0  0  0  0  0  0  0  0  0  0  0  0
   -1.3118    1.3990    0.2975 C   0  0  0  0  0  0  0  0  0  0  0  0
    3.0203   -0.0901   -0.4066 C   0  0  0  0  0  0  0  0  0  0  0  0
    5.3202   -0.9335   -2.1534 H   0  0  0  0  0  0  0  0  0  0  0  0
    5.0221    0.8107   -1.9459 H   0  0  0  0  0  0  0  0  0  0  0  0
    6.3389    0.0384   -1.0636 H   0  0  0  0  0  0  0  0  0  0  0  0
    5.8849   -1.3576    0.9326 H   0  0  0  0  0  0  0  0  0  0  0  0
    4.3191   -1.8973    2.7648 H   0  0  0  0  0  0  0  0  0  0  0  0
    1.9335   -1.2906    2.5895 H   0  0  0  0  0  0  0  0  0  0  0  0
    0.0852   -0.9772    0.6165 H   0  0  0  0  0  0  0  0  0  0  0  0
    1.0312    5.0755    0.3962 H   0  0  0  0  0  0  0  0  0  0  0  0
   -0.5219    5.2322    1.2524 H   0  0  0  0  0  0  0  0  0  0  0  0
   -0.4759    5.2385   -0.5372 H   0  0  0  0  0  0  0  0  0  0  0  0
   -4.6595    3.1521    0.2852 H   0  0  0  0  0  0  0  0  0  0  0  0
   -3.8840   -1.0913    1.7001 H   0  0  0  0  0  0  0  0  0  0  0  0
   -3.7964   -4.8527    1.0251 H   0  0  0  0  0  0  0  0  0  0  0  0
   -5.0740   -3.6842    1.4028 H   0  0  0  0  0  0  0  0  0  0  0  0
   -3.6500   -3.8196    2.4567 H   0  0  0  0  0  0  0  0  0  0  0  0
   -2.3291   -3.8461   -1.0665 H   0  0  0  0  0  0  0  0  0  0  0  0
   -1.3909   -0.2260   -2.3835 H   0  0  0  0  0  0  0  0  0  0  0  0
   -0.2874   -1.5631   -1.9988 H   0  0  0  0  0  0  0  0  0  0  0  0
   -1.7230   -1.8479   -2.9991 H   0  0  0  0  0  0  0  0  0  0  0  0
    2.6576    0.4098   -1.3022 H   0  0  0  0  0  0  0  0  0  0  0  0
  1  2  1  0
  2  3  2  0
  3  4  1  0
  4  5  2  0
  5  6  1  0
  6  7  1  0
  7  8  2  3
  8  9  1  0
  9 10  2  0
  9 11  1  0
 11 12  1  0
 11 13  1  0
 13 14  2  0
 14 15  1  0
 15 16  2  0
 16 17  1  0
 17 18  1  0
 18 19  1  0
 19 20  1  0
 20 21  1  0
 20 22  2  0
 22 23  1  0
 23 24  1  0
 17 25  2  0
  6 26  2  0
 26  2  1  0
 25  8  1  0
 25 13  1  0
 23 18  2  0
  1 27  1  0
  1 28  1  0
  1 29  1  0
  3 30  1  0
  4 31  1  0
  5 32  1  0
  7 33  1  0
 12 34  1  0
 12 35  1  0
 12 36  1  0
 15 37  1  0
 19 38  1  0
 21 39  1  0
 21 40  1  0
 21 41  1  0
 22 42  1  0
 24 43  1  0
 24 44  1  0
 24 45  1  0
 26 46  1  0
M  END
$$$$
