
     RDKit          3D

 41 43  0  0  0  0  0  0  0  0999 V2000
   -5.2647   -1.9721   -0.0586 C   0  0  0  0  0  0  0  0  0  0  0  0
   -4.2392   -0.9157    0.2274 C   0  0  0  0  0  0  0  0  0  0  0  0
   -4.0995   -0.3920    1.5166 C   0  0  0  0  0  0  0  0  0  0  0  0
   -3.1211    0.5640    1.7854 C   0  0  0  0  0  0  0  0  0  0  0  0
   -2.2665    0.9954    0.7696 C   0  0  0  0  0  0  0  0  0  0  0  0
   -2.3729    0.4758   -0.5293 C   0  0  0  0  0  0  0  0  0  0  0  0
   -1.5034    0.8894   -1.5770 N   0  0  0  0  0  0  0  0  0  0  0  0
   -2.2085    1.7068   -2.5722 C   0  0  0  0  0  0  0  0  0  0  0  0
   -0.1695    1.1162   -1.3840 C   0  0  0  0  0  0  0  0  0  0  0  0
    0.7276    2.0010   -1.9447 C   0  0  0  0  0  0  0  0  0  0  0  0
    1.9994    1.7555   -1.3673 C   0  0  0  0  0  0  0  0  0  0  0  0
    1.8706    0.7026   -0.4790 C   0  0  0  0  0  0  0  0  0  0  0  0
    2.8524    0.0411    0.3812 C   0  0  0  0  0  0  0  0  0  0  0  0
    2.5523   -0.1408    1.7405 C   0  0  0  0  0  0  0  0  0  0  0  0
    3.4707   -0.7484    2.5989 C   0  0  0  0  0  0  0  0  0  0  0  0
    3.1103   -0.8887    3.9065 O   0  0  0  0  0  0  0  0  0  0  0  0
    4.7078   -1.1908    2.1396 C   0  0  0  0  0  0  0  0  0  0  0  0
    5.0308   -1.0250    0.7942 C   0  0  0  0  0  0  0  0  0  0  0  0
    4.1016   -0.4158   -0.0643 C   0  0  0  0  0  0  0  0  0  0  0  0
    4.4718   -0.3104   -1.4586 N   0  0  0  0  0  0  0  0  0  0  0  0
    5.2681    0.5900   -1.7590 O   0  0  0  0  0  0  0  0  0  0  0  0
    4.0138   -1.1633   -2.2303 O   0  0  0  0  0  0  0  0  0  0  0  0
    0.5481    0.3188   -0.5236 N   0  0  0  0  0  0  0  0  0  0  0  0
   -3.3660   -0.4845   -0.7822 C   0  0  0  0  0  0  0  0  0  0  0  0
   -5.6206   -1.9007   -1.0917 H   0  0  0  0  0  0  0  0  0  0  0  0
   -6.1370   -1.8570    0.5935 H   0  0  0  0  0  0  0  0  0  0  0  0
   -4.8332   -2.9651    0.1000 H   0  0  0  0  0  0  0  0  0  0  0  0
   -4.7542   -0.7241    2.3192 H   0  0  0  0  0  0  0  0  0  0  0  0
   -3.0246    0.9771    2.7860 H   0  0  0  0  0  0  0  0  0  0  0  0
   -1.5227    1.7565    0.9930 H   0  0  0  0  0  0  0  0  0  0  0  0
   -1.6384    1.7603   -3.5074 H   0  0  0  0  0  0  0  0  0  0  0  0
   -2.3604    2.7273   -2.2005 H   0  0  0  0  0  0  0  0  0  0  0  0
   -3.1869    1.2902   -2.8383 H   0  0  0  0  0  0  0  0  0  0  0  0
    0.4998    2.7577   -2.6826 H   0  0  0  0  0  0  0  0  0  0  0  0
    2.9103    2.3006   -1.5841 H   0  0  0  0  0  0  0  0  0  0  0  0
    1.6060    0.2067    2.1507 H   0  0  0  0  0  0  0  0  0  0  0  0
    3.8373   -1.3095    4.3951 H   0  0  0  0  0  0  0  0  0  0  0  0
    5.4223   -1.6626    2.8075 H   0  0  0  0  0  0  0  0  0  0  0  0
    5.9912   -1.3712    0.4186 H   0  0  0  0  0  0  0  0  0  0  0  0
    0.1408   -0.4495   -0.0102 H   0  0  0  0  0  0  0  0  0  0  0  0
   -3.4433   -0.9149   -1.7786 H   0  0  0  0  0  0  0  0  0  0  0  0
  1  2  1  0
  2  3  2  0
  3  4  1  0
  4  5  2  0
  5  6  1  0
  6  7  1  0
  7  8  1  0
  7  9  1  0
  9 10  2  0
 10 11  1  0
 11 12  2  0
 12 13  1  0
 13 14  1  0
 14 15  2  0
 15 16  1  0
 15 17  1  0
 17 18  2  0
 18 19  1  0
 19 20  1  0
 20 21  2  0
 20 22  1  0
 12 23  1  0
  6 24  2  0
 24  2  1  0
 23  9  1  0
 19 13  2  0
  1 25  1  0
  1 26  1  0
  1 27  1  0
  3 28  1  0
  4 29  1  0
  5 30  1  0
  8 31  1  0
  8 32  1  0
  8 33  1  0
 10 34  1  0
 11 35  1  0
 14 36  1  0
 16 37  1  0
 17 38  1  0
 18 39  1  0
 23 40  1  0
 24 41  1  0
M  CHG  2  20   1  22  -1
M  END
$$$$
