
     RDKit          3D

 36 38  0  0  0  0  0  0  0  0999 V2000
    3.7356   -2.3532   -1.7937 O   0  0  0  0  0  0  0  0  0  0  0  0
    3.3376   -2.0157   -0.6701 N   0  0  0  0  0  0  0  0  0  0  0  0
    2.8851   -2.7721    0.1994 O   0  0  0  0  0  0  0  0  0  0  0  0
    3.4842   -0.6204   -0.3175 C   0  0  0  0  0  0  0  0  0  0  0  0
    4.7678   -0.1903    0.0548 C   0  0  0  0  0  0  0  0  0  0  0  0
    4.9545    1.1336    0.4479 C   0  0  0  0  0  0  0  0  0  0  0  0
    3.8629    1.9971    0.4617 C   0  0  0  0  0  0  0  0  0  0  0  0
    3.9964    3.3003    0.8397 O   0  0  0  0  0  0  0  0  0  0  0  0
    2.5896    1.5641    0.0867 C   0  0  0  0  0  0  0  0  0  0  0  0
    2.3737    0.2367   -0.3146 C   0  0  0  0  0  0  0  0  0  0  0  0
    1.0292   -0.1715   -0.7212 C   0  0  0  0  0  0  0  0  0  0  0  0
    0.5810   -0.8100   -1.8626 C   0  0  0  0  0  0  0  0  0  0  0  0
   -0.8217   -0.9727   -1.7473 C   0  0  0  0  0  0  0  0  0  0  0  0
   -1.2198   -0.4220   -0.5469 C   0  0  0  0  0  0  0  0  0  0  0  0
   -2.4420   -0.3261    0.0404 N   0  0  0  0  0  0  0  0  0  0  0  0
   -3.6085   -1.0168   -0.5347 C   0  0  0  0  0  0  0  0  0  0  0  0
   -4.6772   -1.2345    0.5489 C   0  0  0  0  0  0  0  0  0  0  0  0
   -5.1527   -0.0234    1.1562 O   0  0  0  0  0  0  0  0  0  0  0  0
   -4.1946    1.0430    1.1165 C   0  0  0  0  0  0  0  0  0  0  0  0
   -2.7320    0.5703    1.1695 C   0  0  0  0  0  0  0  0  0  0  0  0
   -0.0830    0.0482    0.0640 N   0  0  0  0  0  0  0  0  0  0  0  0
    5.6098   -0.8791    0.0446 H   0  0  0  0  0  0  0  0  0  0  0  0
    5.9450    1.4708    0.7388 H   0  0  0  0  0  0  0  0  0  0  0  0
    4.9301    3.4811    1.0402 H   0  0  0  0  0  0  0  0  0  0  0  0
    1.7719    2.2820    0.0901 H   0  0  0  0  0  0  0  0  0  0  0  0
    1.1913   -1.1276   -2.6993 H   0  0  0  0  0  0  0  0  0  0  0  0
   -1.4691   -1.4381   -2.4776 H   0  0  0  0  0  0  0  0  0  0  0  0
   -3.3257   -1.9942   -0.9422 H   0  0  0  0  0  0  0  0  0  0  0  0
   -4.0182   -0.4058   -1.3476 H   0  0  0  0  0  0  0  0  0  0  0  0
   -4.2793   -1.8685    1.3502 H   0  0  0  0  0  0  0  0  0  0  0  0
   -5.5442   -1.7508    0.1247 H   0  0  0  0  0  0  0  0  0  0  0  0
   -4.4058    1.7050    1.9624 H   0  0  0  0  0  0  0  0  0  0  0  0
   -4.3753    1.6180    0.2004 H   0  0  0  0  0  0  0  0  0  0  0  0
   -2.0862    1.4556    1.1522 H   0  0  0  0  0  0  0  0  0  0  0  0
   -2.5500    0.0255    2.1030 H   0  0  0  0  0  0  0  0  0  0  0  0
   -0.0602    0.4613    0.9829 H   0  0  0  0  0  0  0  0  0  0  0  0
  1  2  2  0
  2  3  1  0
  2  4  1  0
  4  5  1  0
  5  6  2  0
  6  7  1  0
  7  8  1  0
  7  9  2  0
  9 10  1  0
 10 11  1  0
 11 12  2  0
 12 13  1  0
 13 14  2  0
 14 15  1  0
 15 16  1  0
 16 17  1  0
 17 18  1  0
 18 19  1  0
 19 20  1  0
 14 21  1  0
 10  4  2  0
 21 11  1  0
 20 15  1  0
  5 22  1  0
  6 23  1  0
  8 24  1  0
  9 25  1  0
 12 26  1  0
 13 27  1  0
 16 28  1  0
 16 29  1  0
 17 30  1  0
 17 31  1  0
 19 32  1  0
 19 33  1  0
 20 34  1  0
 20 35  1  0
 21 36  1  0
M  CHG  2   2   1   3  -1
M  END
$$$$
