
     RDKit          3D

 33 35  0  0  0  0  0  0  0  0999 V2000
    1.3913   -1.4700    2.5928 C   0  0  0  0  0  0  0  0  0  0  0  0
    0.5494   -0.8767    1.5195 C   0  0  0  0  0  0  0  0  0  0  0  0
   -0.8734   -0.9129    1.4631 C   0  0  0  0  0  0  0  0  0  0  0  0
   -1.2922   -0.2376    0.3310 C   0  0  0  0  0  0  0  0  0  0  0  0
   -2.6374    0.0045   -0.1938 C   0  0  0  0  0  0  0  0  0  0  0  0
   -3.6489   -0.9501   -0.0113 C   0  0  0  0  0  0  0  0  0  0  0  0
   -4.9375   -0.7343   -0.5079 C   0  0  0  0  0  0  0  0  0  0  0  0
   -5.2310    0.4433   -1.1917 C   0  0  0  0  0  0  0  0  0  0  0  0
   -4.2344    1.3992   -1.3725 C   0  0  0  0  0  0  0  0  0  0  0  0
   -4.5958    2.8586   -2.2113 Cl  0  0  0  0  0  0  0  0  0  0  0  0
   -2.9457    1.1876   -0.8790 C   0  0  0  0  0  0  0  0  0  0  0  0
   -0.1472    0.1915   -0.3010 N   0  0  0  0  0  0  0  0  0  0  0  0
    0.9789   -0.1804    0.3987 C   0  0  0  0  0  0  0  0  0  0  0  0
    2.3206    0.1478   -0.0783 C   0  0  0  0  0  0  0  0  0  0  0  0
    3.2820   -0.8567   -0.2405 C   0  0  0  0  0  0  0  0  0  0  0  0
    4.5617   -0.5450   -0.7053 C   0  0  0  0  0  0  0  0  0  0  0  0
    4.8909    0.7744   -1.0106 C   0  0  0  0  0  0  0  0  0  0  0  0
    3.9420    1.7827   -0.8512 C   0  0  0  0  0  0  0  0  0  0  0  0
    2.6616    1.4708   -0.3876 C   0  0  0  0  0  0  0  0  0  0  0  0
    2.2014   -0.7905    2.8764 H   0  0  0  0  0  0  0  0  0  0  0  0
    1.8290   -2.4146    2.2551 H   0  0  0  0  0  0  0  0  0  0  0  0
    0.7975   -1.6727    3.4901 H   0  0  0  0  0  0  0  0  0  0  0  0
   -1.5258   -1.3778    2.1919 H   0  0  0  0  0  0  0  0  0  0  0  0
   -3.4374   -1.8804    0.5120 H   0  0  0  0  0  0  0  0  0  0  0  0
   -5.7084   -1.4865   -0.3611 H   0  0  0  0  0  0  0  0  0  0  0  0
   -6.2332    0.6103   -1.5767 H   0  0  0  0  0  0  0  0  0  0  0  0
   -2.1938    1.9595   -1.0153 H   0  0  0  0  0  0  0  0  0  0  0  0
   -0.1256    0.6789   -1.1854 H   0  0  0  0  0  0  0  0  0  0  0  0
    3.0357   -1.8917   -0.0162 H   0  0  0  0  0  0  0  0  0  0  0  0
    5.2997   -1.3330   -0.8298 H   0  0  0  0  0  0  0  0  0  0  0  0
    5.8875    1.0170   -1.3702 H   0  0  0  0  0  0  0  0  0  0  0  0
    4.1996    2.8130   -1.0820 H   0  0  0  0  0  0  0  0  0  0  0  0
    1.9390    2.2717   -0.2518 H   0  0  0  0  0  0  0  0  0  0  0  0
  1  2  1  0
  2  3  1  0
  3  4  2  0
  4  5  1  0
  5  6  2  0
  6  7  1  0
  7  8  2  0
  8  9  1  0
  9 10  1  0
  9 11  2  0
  4 12  1  0
 12 13  1  0
 13 14  1  0
 14 15  2  0
 15 16  1  0
 16 17  2  0
 17 18  1  0
 18 19  2  0
 13  2  2  0
 19 14  1  0
 11  5  1  0
  1 20  1  0
  1 21  1  0
  1 22  1  0
  3 23  1  0
  6 24  1  0
  7 25  1  0
  8 26  1  0
 11 27  1  0
 12 28  1  0
 15 29  1  0
 16 30  1  0
 17 31  1  0
 18 32  1  0
 19 33  1  0
M  END
$$$$
