
     RDKit          3D

 33 35  0  0  0  0  0  0  0  0999 V2000
    1.4208   -2.9477    0.3698 C   0  0  0  0  0  0  0  0  0  0  0  0
    0.5711   -1.7323    0.2510 C   0  0  0  0  0  0  0  0  0  0  0  0
   -0.8430   -1.6867    0.4154 C   0  0  0  0  0  0  0  0  0  0  0  0
   -1.2747   -0.3891    0.2077 C   0  0  0  0  0  0  0  0  0  0  0  0
   -2.6175    0.1903    0.2680 C   0  0  0  0  0  0  0  0  0  0  0  0
   -3.5607   -0.3102    1.1797 C   0  0  0  0  0  0  0  0  0  0  0  0
   -4.8462    0.2329    1.2487 C   0  0  0  0  0  0  0  0  0  0  0  0
   -5.1968    1.2785    0.4028 C   0  0  0  0  0  0  0  0  0  0  0  0
   -6.4350    1.7871    0.4846 F   0  0  0  0  0  0  0  0  0  0  0  0
   -4.2769    1.7843   -0.5114 C   0  0  0  0  0  0  0  0  0  0  0  0
   -4.7074    3.0759   -1.5662 Cl  0  0  0  0  0  0  0  0  0  0  0  0
   -2.9905    1.2432   -0.5813 C   0  0  0  0  0  0  0  0  0  0  0  0
   -0.1447    0.3483   -0.0654 N   0  0  0  0  0  0  0  0  0  0  0  0
    0.9832   -0.4413   -0.0470 C   0  0  0  0  0  0  0  0  0  0  0  0
    2.3119    0.1147   -0.2936 C   0  0  0  0  0  0  0  0  0  0  0  0
    3.3461   -0.0819    0.6289 C   0  0  0  0  0  0  0  0  0  0  0  0
    4.6138    0.4576    0.3984 C   0  0  0  0  0  0  0  0  0  0  0  0
    4.8576    1.1971   -0.7574 C   0  0  0  0  0  0  0  0  0  0  0  0
    3.8355    1.3974   -1.6835 C   0  0  0  0  0  0  0  0  0  0  0  0
    2.5673    0.8592   -1.4525 C   0  0  0  0  0  0  0  0  0  0  0  0
    1.9362   -2.9590    1.3352 H   0  0  0  0  0  0  0  0  0  0  0  0
    2.1702   -2.9814   -0.4275 H   0  0  0  0  0  0  0  0  0  0  0  0
    0.8161   -3.8576    0.2970 H   0  0  0  0  0  0  0  0  0  0  0  0
   -1.4811   -2.5299    0.6497 H   0  0  0  0  0  0  0  0  0  0  0  0
   -3.2966   -1.1226    1.8540 H   0  0  0  0  0  0  0  0  0  0  0  0
   -5.5727   -0.1525    1.9573 H   0  0  0  0  0  0  0  0  0  0  0  0
   -2.2915    1.6345   -1.3156 H   0  0  0  0  0  0  0  0  0  0  0  0
   -0.1292    1.3466   -0.2182 H   0  0  0  0  0  0  0  0  0  0  0  0
    3.1675   -0.6481    1.5398 H   0  0  0  0  0  0  0  0  0  0  0  0
    5.4091    0.3007    1.1223 H   0  0  0  0  0  0  0  0  0  0  0  0
    5.8448    1.6149   -0.9375 H   0  0  0  0  0  0  0  0  0  0  0  0
    4.0266    1.9677   -2.5888 H   0  0  0  0  0  0  0  0  0  0  0  0
    1.7865    1.0095   -2.1939 H   0  0  0  0  0  0  0  0  0  0  0  0
  1  2  1  0
  2  3  1  0
  3  4  2  0
  4  5  1  0
  5  6  1  0
  6  7  2  0
  7  8  1  0
  8  9  1  0
  8 10  2  0
 10 11  1  0
 10 12  1  0
  4 13  1  0
 13 14  1  0
 14 15  1  0
 15 16  2  0
 16 17  1  0
 17 18  2  0
 18 19  1  0
 19 20  2  0
 14  2  2  0
 20 15  1  0
 12  5  2  0
  1 21  1  0
  1 22  1  0
  1 23  1  0
  3 24  1  0
  6 25  1  0
  7 26  1  0
 12 27  1  0
 13 28  1  0
 16 29  1  0
 17 30  1  0
 18 31  1  0
 19 32  1  0
 20 33  1  0
M  END
$$$$
