
     RDKit          3D

 36 38  0  0  0  0  0  0  0  0999 V2000
   -4.4291   -1.3687    0.1624 C   0  0  0  0  0  0  0  0  0  0  0  0
   -3.8210   -0.9724   -1.1011 N   0  0  0  0  0  0  0  0  0  0  0  0
   -3.8292   -1.9588   -2.1672 C   0  0  0  0  0  0  0  0  0  0  0  0
   -2.7018   -0.1754   -1.1022 N   0  0  0  0  0  0  0  0  0  0  0  0
   -2.6119    0.5594   -0.0988 N   0  0  0  0  0  0  0  0  0  0  0  0
   -1.4480    1.3387   -0.1815 C   0  0  0  0  0  0  0  0  0  0  0  0
   -1.5302    2.6856   -0.5227 C   0  0  0  0  0  0  0  0  0  0  0  0
   -0.3727    3.4684   -0.5861 C   0  0  0  0  0  0  0  0  0  0  0  0
    0.8827    2.9459   -0.3034 C   0  0  0  0  0  0  0  0  0  0  0  0
    1.9439    3.7534   -0.3963 N   0  0  0  0  0  0  0  0  0  0  0  0
    3.1395    3.2161   -0.1268 C   0  0  0  0  0  0  0  0  0  0  0  0
    3.3716    1.9525    0.2355 N   0  0  0  0  0  0  0  0  0  0  0  0
    2.2862    1.1533    0.3424 C   0  0  0  0  0  0  0  0  0  0  0  0
    2.6035   -0.2177    0.7739 C   0  0  0  0  0  0  0  0  0  0  0  0
    3.3548   -1.0693   -0.0523 C   0  0  0  0  0  0  0  0  0  0  0  0
    3.6581   -2.3732    0.3471 C   0  0  0  0  0  0  0  0  0  0  0  0
    3.2211   -2.8425    1.5838 C   0  0  0  0  0  0  0  0  0  0  0  0
    2.4874   -2.0083    2.4243 C   0  0  0  0  0  0  0  0  0  0  0  0
    2.1845   -0.7044    2.0241 C   0  0  0  0  0  0  0  0  0  0  0  0
    0.9811    1.5969    0.0654 C   0  0  0  0  0  0  0  0  0  0  0  0
   -0.1938    0.8012    0.1190 C   0  0  0  0  0  0  0  0  0  0  0  0
   -4.6272   -0.4936    0.7873 H   0  0  0  0  0  0  0  0  0  0  0  0
   -5.3858   -1.8592   -0.0405 H   0  0  0  0  0  0  0  0  0  0  0  0
   -3.7627   -2.0643    0.6804 H   0  0  0  0  0  0  0  0  0  0  0  0
   -3.1830   -2.7964   -1.8897 H   0  0  0  0  0  0  0  0  0  0  0  0
   -3.4685   -1.5012   -3.0934 H   0  0  0  0  0  0  0  0  0  0  0  0
   -4.8523   -2.3116   -2.3242 H   0  0  0  0  0  0  0  0  0  0  0  0
   -2.4971    3.1270   -0.7504 H   0  0  0  0  0  0  0  0  0  0  0  0
   -0.4561    4.5163   -0.8671 H   0  0  0  0  0  0  0  0  0  0  0  0
    4.0010    3.8698   -0.2095 H   0  0  0  0  0  0  0  0  0  0  0  0
    3.7114   -0.7111   -1.0164 H   0  0  0  0  0  0  0  0  0  0  0  0
    4.2405   -3.0181   -0.3057 H   0  0  0  0  0  0  0  0  0  0  0  0
    3.4607   -3.8556    1.8964 H   0  0  0  0  0  0  0  0  0  0  0  0
    2.1566   -2.3690    3.3948 H   0  0  0  0  0  0  0  0  0  0  0  0
    1.6238   -0.0615    2.7000 H   0  0  0  0  0  0  0  0  0  0  0  0
   -0.1379   -0.2521    0.3855 H   0  0  0  0  0  0  0  0  0  0  0  0
  1  2  1  0
  2  3  1  0
  2  4  1  0
  4  5  2  0
  5  6  1  0
  6  7  1  0
  7  8  2  0
  8  9  1  0
  9 10  2  0
 10 11  1  0
 11 12  2  0
 12 13  1  0
 13 14  1  0
 14 15  2  0
 15 16  1  0
 16 17  2  0
 17 18  1  0
 18 19  2  0
 13 20  2  0
 20 21  1  0
 21  6  2  0
 20  9  1  0
 19 14  1  0
  1 22  1  0
  1 23  1  0
  1 24  1  0
  3 25  1  0
  3 26  1  0
  3 27  1  0
  7 28  1  0
  8 29  1  0
 11 30  1  0
 15 31  1  0
 16 32  1  0
 17 33  1  0
 18 34  1  0
 19 35  1  0
 21 36  1  0
M  END
$$$$
