
     RDKit          3D

 30 31  0  0  0  0  0  0  0  0999 V2000
   -5.2210    2.2156   -1.1183 O   0  0  0  0  0  0  0  0  0  0  0  0
   -4.0890    1.8378   -1.3548 C   0  0  0  0  0  0  0  0  0  0  0  0
   -3.4612    2.1901   -2.4905 O   0  0  0  0  0  0  0  0  0  0  0  0
   -3.2564    0.9758   -0.4821 C   0  0  0  0  0  0  0  0  0  0  0  0
   -3.8027    0.5424    0.7307 C   0  0  0  0  0  0  0  0  0  0  0  0
   -3.0429   -0.2657    1.5635 C   0  0  0  0  0  0  0  0  0  0  0  0
   -3.5806   -0.6908    2.7456 O   0  0  0  0  0  0  0  0  0  0  0  0
   -1.7488   -0.6506    1.2129 C   0  0  0  0  0  0  0  0  0  0  0  0
   -1.0894   -1.4621    2.1016 O   0  0  0  0  0  0  0  0  0  0  0  0
   -1.1864   -0.2193    0.0064 C   0  0  0  0  0  0  0  0  0  0  0  0
    0.1753   -0.5735   -0.4001 C   0  0  0  0  0  0  0  0  0  0  0  0
    1.2483    0.0283    0.1387 C   0  0  0  0  0  0  0  0  0  0  0  0
    2.6334   -0.2999   -0.2266 C   0  0  0  0  0  0  0  0  0  0  0  0
    3.6887    0.4449    0.2913 C   0  0  0  0  0  0  0  0  0  0  0  0
    4.9913    0.1032   -0.0657 C   0  0  0  0  0  0  0  0  0  0  0  0
    5.2028   -0.9683   -0.9238 C   0  0  0  0  0  0  0  0  0  0  0  0
    4.0971   -1.6580   -1.3901 C   0  0  0  0  0  0  0  0  0  0  0  0
    2.8234   -1.3503   -1.0593 N   0  0  0  0  0  0  0  0  0  0  0  0
   -1.9518    0.5950   -0.8415 C   0  0  0  0  0  0  0  0  0  0  0  0
   -4.1206    2.7446   -2.9583 H   0  0  0  0  0  0  0  0  0  0  0  0
   -4.8095    0.8279    1.0251 H   0  0  0  0  0  0  0  0  0  0  0  0
   -2.8813   -1.2421    3.1515 H   0  0  0  0  0  0  0  0  0  0  0  0
   -0.2404   -1.7193    1.6969 H   0  0  0  0  0  0  0  0  0  0  0  0
    0.2691   -1.3388   -1.1673 H   0  0  0  0  0  0  0  0  0  0  0  0
    1.1214    0.8076    0.8854 H   0  0  0  0  0  0  0  0  0  0  0  0
    3.5126    1.2810    0.9600 H   0  0  0  0  0  0  0  0  0  0  0  0
    5.8326    0.6702    0.3227 H   0  0  0  0  0  0  0  0  0  0  0  0
    6.2037   -1.2594   -1.2222 H   0  0  0  0  0  0  0  0  0  0  0  0
    4.2082   -2.5036   -2.0629 H   0  0  0  0  0  0  0  0  0  0  0  0
   -1.5258    0.9372   -1.7832 H   0  0  0  0  0  0  0  0  0  0  0  0
  1  2  2  0
  2  3  1  0
  2  4  1  0
  4  5  1  0
  5  6  2  0
  6  7  1  0
  6  8  1  0
  8  9  1  0
  8 10  2  0
 10 11  1  0
 11 12  2  3
 12 13  1  0
 13 14  2  0
 14 15  1  0
 15 16  2  0
 16 17  1  0
 17 18  2  0
 10 19  1  0
 19  4  2  0
 18 13  1  0
  3 20  1  0
  5 21  1  0
  7 22  1  0
  9 23  1  0
 11 24  1  0
 12 25  1  0
 14 26  1  0
 15 27  1  0
 16 28  1  0
 17 29  1  0
 19 30  1  0
M  END
$$$$
