
     RDKit          3D

 35 36  0  0  0  0  0  0  0  0999 V2000
   -0.2635   -3.2372   -1.6023 C   0  0  0  0  0  0  0  0  0  0  0  0
    0.2997   -2.0311   -0.9396 C   0  0  0  0  0  0  0  0  0  0  0  0
    1.6425   -1.8668   -0.4884 C   0  0  0  0  0  0  0  0  0  0  0  0
    1.7723   -0.6044    0.0633 C   0  0  0  0  0  0  0  0  0  0  0  0
    2.8938    0.0998    0.6751 C   0  0  0  0  0  0  0  0  0  0  0  0
    4.1699   -0.4421    0.7615 C   0  0  0  0  0  0  0  0  0  0  0  0
    5.1729    0.3110    1.3671 C   0  0  0  0  0  0  0  0  0  0  0  0
    4.8719    1.5734    1.8642 C   0  0  0  0  0  0  0  0  0  0  0  0
    3.5726    2.0348    1.7348 C   0  0  0  0  0  0  0  0  0  0  0  0
    2.5777    1.3280    1.1552 N   0  0  0  0  0  0  0  0  0  0  0  0
    0.5413   -0.0005   -0.0635 N   0  0  0  0  0  0  0  0  0  0  0  0
   -0.3694   -0.8598   -0.6288 C   0  0  0  0  0  0  0  0  0  0  0  0
   -1.6982   -0.4185   -0.8516 C   0  0  0  0  0  0  0  0  0  0  0  0
   -2.4669    0.1578    0.0979 C   0  0  0  0  0  0  0  0  0  0  0  0
   -2.0849    0.3789    1.4118 N   0  0  0  0  0  0  0  0  0  0  0  0
   -3.8052    0.6274   -0.2769 C   0  0  0  0  0  0  0  0  0  0  0  0
   -4.8223   -0.3750   -0.3659 C   0  0  0  0  0  0  0  0  0  0  0  0
   -5.6484   -1.1850   -0.4426 N   0  0  0  0  0  0  0  0  0  0  0  0
   -4.0718    1.9278   -0.5320 C   0  0  0  0  0  0  0  0  0  0  0  0
   -3.0523    2.9213   -0.4660 C   0  0  0  0  0  0  0  0  0  0  0  0
   -2.2313    3.7405   -0.4333 N   0  0  0  0  0  0  0  0  0  0  0  0
   -5.3793    2.3631   -0.8900 C   0  0  0  0  0  0  0  0  0  0  0  0
   -6.4462    2.7117   -1.1816 N   0  0  0  0  0  0  0  0  0  0  0  0
   -0.5534   -3.0055   -2.6321 H   0  0  0  0  0  0  0  0  0  0  0  0
    0.4678   -4.0516   -1.6305 H   0  0  0  0  0  0  0  0  0  0  0  0
   -1.1472   -3.5952   -1.0641 H   0  0  0  0  0  0  0  0  0  0  0  0
    2.4303   -2.6052   -0.5657 H   0  0  0  0  0  0  0  0  0  0  0  0
    4.3921   -1.4269    0.3677 H   0  0  0  0  0  0  0  0  0  0  0  0
    6.1810   -0.0854    1.4487 H   0  0  0  0  0  0  0  0  0  0  0  0
    5.6311    2.1842    2.3397 H   0  0  0  0  0  0  0  0  0  0  0  0
    3.2880    3.0154    2.1056 H   0  0  0  0  0  0  0  0  0  0  0  0
    0.3587    0.9463    0.2507 H   0  0  0  0  0  0  0  0  0  0  0  0
   -2.0938   -0.5943   -1.8509 H   0  0  0  0  0  0  0  0  0  0  0  0
   -2.8370    0.2688    2.0902 H   0  0  0  0  0  0  0  0  0  0  0  0
   -1.2923   -0.2057    1.6886 H   0  0  0  0  0  0  0  0  0  0  0  0
  1  2  1  0
  2  3  1  0
  3  4  2  0
  4  5  1  0
  5  6  2  0
  6  7  1  0
  7  8  2  0
  8  9  1  0
  9 10  2  0
  4 11  1  0
 11 12  1  0
 12 13  1  0
 13 14  2  3
 14 15  1  0
 14 16  1  0
 16 17  1  0
 17 18  3  0
 16 19  2  3
 19 20  1  0
 20 21  3  0
 19 22  1  0
 22 23  3  0
 12  2  2  0
 10  5  1  0
  1 24  1  0
  1 25  1  0
  1 26  1  0
  3 27  1  0
  6 28  1  0
  7 29  1  0
  8 30  1  0
  9 31  1  0
 11 32  1  0
 13 33  1  0
 15 34  1  0
 15 35  1  0
M  END
$$$$
