
     RDKit          3D

 39 40  0  0  0  0  0  0  0  0999 V2000
    2.3049    2.3740    1.5786 C   0  0  0  0  0  0  0  0  0  0  0  0
    1.3288    1.3579    1.1022 C   0  0  0  0  0  0  0  0  0  0  0  0
   -0.0112    1.4743    1.3822 N   0  0  0  0  0  0  0  0  0  0  0  0
   -0.7102    0.4488    0.7954 C   0  0  0  0  0  0  0  0  0  0  0  0
   -2.1181    0.4367    0.9594 C   0  0  0  0  0  0  0  0  0  0  0  0
   -2.9745    0.4356   -0.0851 C   0  0  0  0  0  0  0  0  0  0  0  0
   -2.6047    0.4605   -1.4200 N   0  0  0  0  0  0  0  0  0  0  0  0
   -4.4155    0.3703    0.1835 C   0  0  0  0  0  0  0  0  0  0  0  0
   -5.0061    1.5524    0.7326 C   0  0  0  0  0  0  0  0  0  0  0  0
   -5.4720    2.5123    1.1864 N   0  0  0  0  0  0  0  0  0  0  0  0
   -5.1522   -0.7362   -0.0632 C   0  0  0  0  0  0  0  0  0  0  0  0
   -4.5626   -1.9270   -0.5798 C   0  0  0  0  0  0  0  0  0  0  0  0
   -4.1076   -2.9161   -0.9816 N   0  0  0  0  0  0  0  0  0  0  0  0
   -6.5513   -0.7696    0.1996 C   0  0  0  0  0  0  0  0  0  0  0  0
   -7.6900   -0.7873    0.4184 N   0  0  0  0  0  0  0  0  0  0  0  0
    0.2038   -0.3874    0.1720 C   0  0  0  0  0  0  0  0  0  0  0  0
   -0.0892   -1.6629   -0.5440 C   0  0  0  0  0  0  0  0  0  0  0  0
    1.4958    0.2002    0.3610 C   0  0  0  0  0  0  0  0  0  0  0  0
    2.7864   -0.2638   -0.1172 C   0  0  0  0  0  0  0  0  0  0  0  0
    3.7800   -0.6551    0.7891 C   0  0  0  0  0  0  0  0  0  0  0  0
    5.0169   -1.1083    0.3261 C   0  0  0  0  0  0  0  0  0  0  0  0
    5.2644   -1.1741   -1.0450 C   0  0  0  0  0  0  0  0  0  0  0  0
    4.2733   -0.7879   -1.9467 C   0  0  0  0  0  0  0  0  0  0  0  0
    4.5811   -0.8708   -3.6382 Cl  0  0  0  0  0  0  0  0  0  0  0  0
    3.0361   -0.3350   -1.4916 C   0  0  0  0  0  0  0  0  0  0  0  0
    2.8445    2.0004    2.4545 H   0  0  0  0  0  0  0  0  0  0  0  0
    1.8053    3.3071    1.8595 H   0  0  0  0  0  0  0  0  0  0  0  0
    3.0332    2.6107    0.7965 H   0  0  0  0  0  0  0  0  0  0  0  0
   -0.4232    2.2319    1.9113 H   0  0  0  0  0  0  0  0  0  0  0  0
   -2.4899    0.4322    1.9830 H   0  0  0  0  0  0  0  0  0  0  0  0
   -1.6075    0.6544   -1.5384 H   0  0  0  0  0  0  0  0  0  0  0  0
   -3.1508    1.1017   -1.9923 H   0  0  0  0  0  0  0  0  0  0  0  0
   -1.0318   -2.1037   -0.2053 H   0  0  0  0  0  0  0  0  0  0  0  0
   -0.1577   -1.4854   -1.6218 H   0  0  0  0  0  0  0  0  0  0  0  0
    0.6989   -2.4014   -0.3649 H   0  0  0  0  0  0  0  0  0  0  0  0
    3.5901   -0.6157    1.8595 H   0  0  0  0  0  0  0  0  0  0  0  0
    5.7839   -1.4126    1.0338 H   0  0  0  0  0  0  0  0  0  0  0  0
    6.2273   -1.5280   -1.4035 H   0  0  0  0  0  0  0  0  0  0  0  0
    2.2716   -0.0332   -2.2022 H   0  0  0  0  0  0  0  0  0  0  0  0
  1  2  1  0
  2  3  1  0
  3  4  1  0
  4  5  1  0
  5  6  2  3
  6  7  1  0
  6  8  1  0
  8  9  1  0
  9 10  3  0
  8 11  2  3
 11 12  1  0
 12 13  3  0
 11 14  1  0
 14 15  3  0
  4 16  2  0
 16 17  1  0
 16 18  1  0
 18 19  1  0
 19 20  2  0
 20 21  1  0
 21 22  2  0
 22 23  1  0
 23 24  1  0
 23 25  2  0
 18  2  2  0
 25 19  1  0
  1 26  1  0
  1 27  1  0
  1 28  1  0
  3 29  1  0
  5 30  1  0
  7 31  1  0
  7 32  1  0
 17 33  1  0
 17 34  1  0
 17 35  1  0
 20 36  1  0
 21 37  1  0
 22 38  1  0
 25 39  1  0
M  END
$$$$
