
     RDKit          3D

 36 38  0  0  0  0  0  0  0  0999 V2000
   -5.0634    1.2450   -1.4136 C   0  0  0  0  0  0  0  0  0  0  0  0
   -4.4699    0.5195   -0.2422 C   0  0  0  0  0  0  0  0  0  0  0  0
   -5.2914   -0.1844    0.6441 C   0  0  0  0  0  0  0  0  0  0  0  0
   -4.7429   -0.8217    1.7559 C   0  0  0  0  0  0  0  0  0  0  0  0
   -3.3691   -0.7543    1.9951 C   0  0  0  0  0  0  0  0  0  0  0  0
   -2.5270   -0.0496    1.1266 C   0  0  0  0  0  0  0  0  0  0  0  0
   -1.0880    0.0165    1.3868 C   0  0  0  0  0  0  0  0  0  0  0  0
   -0.3885    0.0836    2.5776 C   0  0  0  0  0  0  0  0  0  0  0  0
    0.9942    0.1067    2.2747 C   0  0  0  0  0  0  0  0  0  0  0  0
    1.1356    0.0516    0.8992 C   0  0  0  0  0  0  0  0  0  0  0  0
    2.3378    0.0295    0.0643 C   0  0  0  0  0  0  0  0  0  0  0  0
    2.3497    0.6274   -1.2037 C   0  0  0  0  0  0  0  0  0  0  0  0
    3.5009    0.6027   -1.9972 C   0  0  0  0  0  0  0  0  0  0  0  0
    4.6601   -0.0170   -1.5364 C   0  0  0  0  0  0  0  0  0  0  0  0
    5.7213    0.0208   -2.3988 O   0  0  0  0  0  0  0  0  0  0  0  0
    4.6643   -0.6126   -0.2692 C   0  0  0  0  0  0  0  0  0  0  0  0
    5.8649   -1.2699    0.2509 N   0  0  0  0  0  0  0  0  0  0  0  0
    6.8668   -1.2929   -0.4830 O   0  0  0  0  0  0  0  0  0  0  0  0
    5.8181   -1.7632    1.3859 O   0  0  0  0  0  0  0  0  0  0  0  0
    3.5072   -0.5888    0.5286 C   0  0  0  0  0  0  0  0  0  0  0  0
   -0.1424   -0.0157    0.3849 N   0  0  0  0  0  0  0  0  0  0  0  0
   -3.0919    0.5924    0.0140 C   0  0  0  0  0  0  0  0  0  0  0  0
   -5.9647    0.7372   -1.7725 H   0  0  0  0  0  0  0  0  0  0  0  0
   -5.3243    2.2683   -1.1267 H   0  0  0  0  0  0  0  0  0  0  0  0
   -4.3566    1.2801   -2.2493 H   0  0  0  0  0  0  0  0  0  0  0  0
   -6.3647   -0.2378    0.4759 H   0  0  0  0  0  0  0  0  0  0  0  0
   -5.3852   -1.3707    2.4396 H   0  0  0  0  0  0  0  0  0  0  0  0
   -2.9609   -1.2651    2.8639 H   0  0  0  0  0  0  0  0  0  0  0  0
   -0.8282    0.1218    3.5662 H   0  0  0  0  0  0  0  0  0  0  0  0
    1.8014    0.1660    2.9938 H   0  0  0  0  0  0  0  0  0  0  0  0
    1.4703    1.1409   -1.5859 H   0  0  0  0  0  0  0  0  0  0  0  0
    3.4933    1.0757   -2.9769 H   0  0  0  0  0  0  0  0  0  0  0  0
    6.4919   -0.4379   -2.0014 H   0  0  0  0  0  0  0  0  0  0  0  0
    3.5061   -1.0607    1.5099 H   0  0  0  0  0  0  0  0  0  0  0  0
   -0.3615   -0.1198   -0.5954 H   0  0  0  0  0  0  0  0  0  0  0  0
   -2.4633    1.1763   -0.6541 H   0  0  0  0  0  0  0  0  0  0  0  0
  1  2  1  0
  2  3  2  0
  3  4  1  0
  4  5  2  0
  5  6  1  0
  6  7  1  0
  7  8  2  0
  8  9  1  0
  9 10  2  0
 10 11  1  0
 11 12  1  0
 12 13  2  0
 13 14  1  0
 14 15  1  0
 14 16  2  0
 16 17  1  0
 17 18  2  0
 17 19  1  0
 16 20  1  0
 10 21  1  0
  6 22  2  0
 22  2  1  0
 21  7  1  0
 20 11  2  0
  1 23  1  0
  1 24  1  0
  1 25  1  0
  3 26  1  0
  4 27  1  0
  5 28  1  0
  8 29  1  0
  9 30  1  0
 12 31  1  0
 13 32  1  0
 15 33  1  0
 20 34  1  0
 21 35  1  0
 22 36  1  0
M  CHG  2  17   1  19  -1
M  END
$$$$
