
     RDKit          3D

 28 29  0  0  0  0  0  0  0  0999 V2000
   -4.4619   -2.2011    0.2359 O   0  0  0  0  0  0  0  0  0  0  0  0
   -3.6514   -1.8293    1.0957 N   0  0  0  0  0  0  0  0  0  0  0  0
   -3.4041   -2.4170    2.1583 O   0  0  0  0  0  0  0  0  0  0  0  0
   -2.8633   -0.6530    0.8014 C   0  0  0  0  0  0  0  0  0  0  0  0
   -1.4885   -0.8196    0.5869 C   0  0  0  0  0  0  0  0  0  0  0  0
   -0.6909    0.2927    0.2806 C   0  0  0  0  0  0  0  0  0  0  0  0
    0.7555    0.1486    0.0427 C   0  0  0  0  0  0  0  0  0  0  0  0
    1.6822    0.9383    0.7512 C   0  0  0  0  0  0  0  0  0  0  0  0
    3.0455    0.8004    0.5188 C   0  0  0  0  0  0  0  0  0  0  0  0
    3.9259    1.5757    1.2161 O   0  0  0  0  0  0  0  0  0  0  0  0
    3.5107   -0.1158   -0.4113 C   0  0  0  0  0  0  0  0  0  0  0  0
    4.8582   -0.2298   -0.6194 O   0  0  0  0  0  0  0  0  0  0  0  0
    2.6151   -0.9045   -1.1203 C   0  0  0  0  0  0  0  0  0  0  0  0
    3.1281   -1.7892   -2.0278 O   0  0  0  0  0  0  0  0  0  0  0  0
    1.2445   -0.7799   -0.9013 C   0  0  0  0  0  0  0  0  0  0  0  0
   -1.3144    1.5537    0.2065 C   0  0  0  0  0  0  0  0  0  0  0  0
   -2.6896    1.7089    0.4311 C   0  0  0  0  0  0  0  0  0  0  0  0
   -3.4713    0.5980    0.7323 C   0  0  0  0  0  0  0  0  0  0  0  0
   -4.8044    0.7453    0.9736 O   0  0  0  0  0  0  0  0  0  0  0  0
   -1.0436   -1.8097    0.6709 H   0  0  0  0  0  0  0  0  0  0  0  0
    1.3483    1.6568    1.4960 H   0  0  0  0  0  0  0  0  0  0  0  0
    4.8075    1.2990    0.8929 H   0  0  0  0  0  0  0  0  0  0  0  0
    4.9374   -0.9263   -1.3035 H   0  0  0  0  0  0  0  0  0  0  0  0
    2.3894   -2.2677   -2.4433 H   0  0  0  0  0  0  0  0  0  0  0  0
    0.5448   -1.3892   -1.4672 H   0  0  0  0  0  0  0  0  0  0  0  0
   -0.7234    2.4371   -0.0360 H   0  0  0  0  0  0  0  0  0  0  0  0
   -3.1223    2.7037    0.3682 H   0  0  0  0  0  0  0  0  0  0  0  0
   -5.0642    1.6742    0.8487 H   0  0  0  0  0  0  0  0  0  0  0  0
  1  2  2  0
  2  3  1  0
  2  4  1  0
  4  5  1  0
  5  6  2  0
  6  7  1  0
  7  8  1  0
  8  9  2  0
  9 10  1  0
  9 11  1  0
 11 12  1  0
 11 13  2  0
 13 14  1  0
 13 15  1  0
  6 16  1  0
 16 17  2  0
 17 18  1  0
 18 19  1  0
 18  4  2  0
 15  7  2  0
  5 20  1  0
  8 21  1  0
 10 22  1  0
 12 23  1  0
 14 24  1  0
 15 25  1  0
 16 26  1  0
 17 27  1  0
 19 28  1  0
M  CHG  2   2   1   3  -1
M  END
$$$$
