
     RDKit          3D

 32 32  0  0  0  0  0  0  0  0999 V2000
   -0.3444   -1.4874   -2.1674 N   0  0  0  0  0  0  0  0  0  0  0  0
   -0.1725   -1.2413   -1.0474 C   0  0  0  0  0  0  0  0  0  0  0  0
   -0.0220   -0.9036    0.3338 C   0  0  0  0  0  0  0  0  0  0  0  0
    1.0525   -0.2304    0.7949 C   0  0  0  0  0  0  0  0  0  0  0  0
    2.1797    0.2612   -0.0063 C   0  0  0  0  0  0  0  0  0  0  0  0
    2.4394    1.6375   -0.0324 C   0  0  0  0  0  0  0  0  0  0  0  0
    3.5101    2.1408   -0.7742 C   0  0  0  0  0  0  0  0  0  0  0  0
    4.3343    1.2715   -1.4875 C   0  0  0  0  0  0  0  0  0  0  0  0
    4.0855   -0.0992   -1.4513 C   0  0  0  0  0  0  0  0  0  0  0  0
    5.2115   -1.2802   -2.4067 Br  0  0  0  0  0  0  0  0  0  0  0  0
    3.0170   -0.6100   -0.7129 C   0  0  0  0  0  0  0  0  0  0  0  0
   -1.0942   -1.2852    1.2668 C   0  0  0  0  0  0  0  0  0  0  0  0
   -0.7093   -2.0682    2.3624 N   0  0  0  0  0  0  0  0  0  0  0  0
   -2.4019   -0.9112    1.1356 C   0  0  0  0  0  0  0  0  0  0  0  0
   -3.3176   -1.2523    2.1328 N   0  0  0  0  0  0  0  0  0  0  0  0
   -2.9348   -0.1205    0.0138 C   0  0  0  0  0  0  0  0  0  0  0  0
   -3.7776   -0.8406   -0.8958 C   0  0  0  0  0  0  0  0  0  0  0  0
   -4.4852   -1.4001   -1.6240 N   0  0  0  0  0  0  0  0  0  0  0  0
   -2.7104    1.2030   -0.1531 C   0  0  0  0  0  0  0  0  0  0  0  0
   -1.9190    1.9427    0.7709 C   0  0  0  0  0  0  0  0  0  0  0  0
   -1.2619    2.5267    1.5280 N   0  0  0  0  0  0  0  0  0  0  0  0
   -3.2742    1.9281   -1.2424 C   0  0  0  0  0  0  0  0  0  0  0  0
   -3.7386    2.5342   -2.1147 N   0  0  0  0  0  0  0  0  0  0  0  0
    1.1075    0.0401    1.8501 H   0  0  0  0  0  0  0  0  0  0  0  0
    1.8087    2.3315    0.5216 H   0  0  0  0  0  0  0  0  0  0  0  0
    3.7017    3.2111   -0.7946 H   0  0  0  0  0  0  0  0  0  0  0  0
    5.1657    1.6701   -2.0632 H   0  0  0  0  0  0  0  0  0  0  0  0
    2.8454   -1.6832   -0.6893 H   0  0  0  0  0  0  0  0  0  0  0  0
   -1.4583   -2.7132    2.6221 H   0  0  0  0  0  0  0  0  0  0  0  0
    0.1482   -2.5925    2.1894 H   0  0  0  0  0  0  0  0  0  0  0  0
   -2.8563   -1.3382    3.0417 H   0  0  0  0  0  0  0  0  0  0  0  0
   -4.1287   -0.6409    2.2029 H   0  0  0  0  0  0  0  0  0  0  0  0
  1  2  3  0
  2  3  1  0
  3  4  2  3
  4  5  1  0
  5  6  2  0
  6  7  1  0
  7  8  2  0
  8  9  1  0
  9 10  1  0
  9 11  2  0
  3 12  1  0
 12 13  1  0
 12 14  2  3
 14 15  1  0
 14 16  1  0
 16 17  1  0
 17 18  3  0
 16 19  2  3
 19 20  1  0
 20 21  3  0
 19 22  1  0
 22 23  3  0
 11  5  1  0
  4 24  1  0
  6 25  1  0
  7 26  1  0
  8 27  1  0
 11 28  1  0
 13 29  1  0
 13 30  1  0
 15 31  1  0
 15 32  1  0
M  END
$$$$
