
     RDKit          3D

 58 62  0  0  0  0  0  0  0  0999 V2000
    3.4805    5.1539    3.0801 O   0  0  0  0  0  0  0  0  0  0  0  0
    3.5998    3.9203    2.5131 C   0  0  0  0  0  0  0  0  0  0  0  0
    4.8370    3.4110    2.1381 C   0  0  0  0  0  0  0  0  0  0  0  0
    4.9087    2.1403    1.5576 C   0  0  0  0  0  0  0  0  0  0  0  0
    3.7521    1.3706    1.3461 C   0  0  0  0  0  0  0  0  0  0  0  0
    3.8112    0.0820    0.7579 N   0  0  0  0  0  0  0  0  0  0  0  0
    3.4057   -1.0014    1.6850 C   0  0  0  0  0  0  0  0  0  0  0  0
    2.4073   -1.9784    1.0492 C   0  0  0  0  0  0  0  0  0  0  0  0
    1.1286   -1.2873    0.7999 N   0  0  0  0  0  0  0  0  0  0  0  0
    0.1485   -2.0260    1.0025 N   0  0  0  0  0  0  0  0  0  0  0  0
   -0.9318   -1.2728    0.7259 N   0  0  0  0  0  0  0  0  0  0  0  0
   -2.1680   -1.9051    0.5167 C   0  0  0  0  0  0  0  0  0  0  0  0
   -2.4258   -3.2140    0.9264 C   0  0  0  0  0  0  0  0  0  0  0  0
   -3.6949   -3.7819    0.7577 C   0  0  0  0  0  0  0  0  0  0  0  0
   -4.7495   -3.0697    0.2058 C   0  0  0  0  0  0  0  0  0  0  0  0
   -5.9354   -3.6746    0.0721 N   0  0  0  0  0  0  0  0  0  0  0  0
   -6.9292   -2.9516   -0.4586 C   0  0  0  0  0  0  0  0  0  0  0  0
   -6.8494   -1.6823   -0.8667 N   0  0  0  0  0  0  0  0  0  0  0  0
   -5.6454   -1.0885   -0.7178 C   0  0  0  0  0  0  0  0  0  0  0  0
   -5.6152    0.3059   -1.1765 C   0  0  0  0  0  0  0  0  0  0  0  0
   -5.7567    1.3670   -0.2656 C   0  0  0  0  0  0  0  0  0  0  0  0
   -5.7183    2.6936   -0.7006 C   0  0  0  0  0  0  0  0  0  0  0  0
   -5.5416    2.9766   -2.0536 C   0  0  0  0  0  0  0  0  0  0  0  0
   -5.4107    1.9317   -2.9665 C   0  0  0  0  0  0  0  0  0  0  0  0
   -5.1930    2.2816   -4.6375 Cl  0  0  0  0  0  0  0  0  0  0  0  0
   -5.4501    0.6057   -2.5376 C   0  0  0  0  0  0  0  0  0  0  0  0
   -4.5247   -1.7433   -0.1800 C   0  0  0  0  0  0  0  0  0  0  0  0
   -3.2346   -1.1701   -0.0115 C   0  0  0  0  0  0  0  0  0  0  0  0
    4.7163   -0.3244   -0.2572 C   0  0  0  0  0  0  0  0  0  0  0  0
    5.0536    0.5710   -1.2789 C   0  0  0  0  0  0  0  0  0  0  0  0
    5.9275    0.1835   -2.2933 C   0  0  0  0  0  0  0  0  0  0  0  0
    6.4497   -1.0988   -2.2802 C   0  0  0  0  0  0  0  0  0  0  0  0
    6.0627   -1.9400   -1.2551 C   0  0  0  0  0  0  0  0  0  0  0  0
    5.2149   -1.5844   -0.2632 N   0  0  0  0  0  0  0  0  0  0  0  0
    2.5180    1.9120    1.7410 C   0  0  0  0  0  0  0  0  0  0  0  0
    2.4409    3.1810    2.3210 C   0  0  0  0  0  0  0  0  0  0  0  0
    4.3631    5.5559    3.1351 H   0  0  0  0  0  0  0  0  0  0  0  0
    5.7508    3.9750    2.2918 H   0  0  0  0  0  0  0  0  0  0  0  0
    5.8848    1.7414    1.2895 H   0  0  0  0  0  0  0  0  0  0  0  0
    4.2889   -1.5473    2.0430 H   0  0  0  0  0  0  0  0  0  0  0  0
    2.9402   -0.5965    2.5942 H   0  0  0  0  0  0  0  0  0  0  0  0
    2.7738   -2.3873    0.1028 H   0  0  0  0  0  0  0  0  0  0  0  0
    2.2662   -2.8219    1.7374 H   0  0  0  0  0  0  0  0  0  0  0  0
   -0.7400   -0.4679    0.1387 H   0  0  0  0  0  0  0  0  0  0  0  0
   -1.6424   -3.8150    1.3827 H   0  0  0  0  0  0  0  0  0  0  0  0
   -3.8606   -4.8097    1.0753 H   0  0  0  0  0  0  0  0  0  0  0  0
   -7.8896   -3.4437   -0.5657 H   0  0  0  0  0  0  0  0  0  0  0  0
   -5.9080    1.1582    0.7924 H   0  0  0  0  0  0  0  0  0  0  0  0
   -5.8328    3.5041    0.0151 H   0  0  0  0  0  0  0  0  0  0  0  0
   -5.5134    4.0092   -2.3904 H   0  0  0  0  0  0  0  0  0  0  0  0
   -5.3568   -0.2013   -3.2609 H   0  0  0  0  0  0  0  0  0  0  0  0
   -3.0655   -0.1347   -0.3017 H   0  0  0  0  0  0  0  0  0  0  0  0
    4.6227    1.5672   -1.2996 H   0  0  0  0  0  0  0  0  0  0  0  0
    6.1884    0.8796   -3.0851 H   0  0  0  0  0  0  0  0  0  0  0  0
    7.1298   -1.4374   -3.0519 H   0  0  0  0  0  0  0  0  0  0  0  0
    6.4311   -2.9597   -1.2016 H   0  0  0  0  0  0  0  0  0  0  0  0
    1.6019    1.3496    1.5828 H   0  0  0  0  0  0  0  0  0  0  0  0
    1.4787    3.5891    2.6167 H   0  0  0  0  0  0  0  0  0  0  0  0
  1  2  1  0
  2  3  1  0
  3  4  2  0
  4  5  1  0
  5  6  1  0
  6  7  1  0
  7  8  1  0
  8  9  1  0
  9 10  2  0
 10 11  1  0
 11 12  1  0
 12 13  1  0
 13 14  2  0
 14 15  1  0
 15 16  2  0
 16 17  1  0
 17 18  2  0
 18 19  1  0
 19 20  1  0
 20 21  2  0
 21 22  1  0
 22 23  2  0
 23 24  1  0
 24 25  1  0
 24 26  2  0
 19 27  2  0
 27 28  1  0
  6 29  1  0
 29 30  2  0
 30 31  1  0
 31 32  2  0
 32 33  1  0
 33 34  2  0
  5 35  2  0
 35 36  1  0
 36  2  2  0
 28 12  2  0
 34 29  1  0
 27 15  1  0
 26 20  1  0
  1 37  1  0
  3 38  1  0
  4 39  1  0
  7 40  1  0
  7 41  1  0
  8 42  1  0
  8 43  1  0
 11 44  1  0
 13 45  1  0
 14 46  1  0
 17 47  1  0
 21 48  1  0
 22 49  1  0
 23 50  1  0
 26 51  1  0
 28 52  1  0
 30 53  1  0
 31 54  1  0
 32 55  1  0
 33 56  1  0
 35 57  1  0
 36 58  1  0
M  END
$$$$
