
     RDKit          3D

 30 31  0  0  0  0  0  0  0  0999 V2000
   -4.2423    2.0955    0.8793 O   0  0  0  0  0  0  0  0  0  0  0  0
   -3.1100    1.9631    0.4550 C   0  0  0  0  0  0  0  0  0  0  0  0
   -2.4339    3.0076   -0.0568 O   0  0  0  0  0  0  0  0  0  0  0  0
   -2.3279    0.7039    0.4286 C   0  0  0  0  0  0  0  0  0  0  0  0
   -2.9361   -0.4582    0.9216 C   0  0  0  0  0  0  0  0  0  0  0  0
   -2.2261   -1.6472    0.9102 C   0  0  0  0  0  0  0  0  0  0  0  0
   -2.8099   -2.7863    1.3812 O   0  0  0  0  0  0  0  0  0  0  0  0
   -0.9280   -1.6834    0.4162 C   0  0  0  0  0  0  0  0  0  0  0  0
   -0.2590   -2.8821    0.3939 O   0  0  0  0  0  0  0  0  0  0  0  0
   -0.2909   -0.5370   -0.0813 C   0  0  0  0  0  0  0  0  0  0  0  0
    1.0420   -0.6638   -0.5312 N   0  0  0  0  0  0  0  0  0  0  0  0
    2.0030   -0.3130    0.5515 C   0  0  0  0  0  0  0  0  0  0  0  0
    3.4091   -0.1345   -0.0404 C   0  0  0  0  0  0  0  0  0  0  0  0
    3.4958    0.9418   -0.9874 O   0  0  0  0  0  0  0  0  0  0  0  0
    2.2487    1.2348   -1.6357 C   0  0  0  0  0  0  0  0  0  0  0  0
    1.3523    0.0010   -1.8249 C   0  0  0  0  0  0  0  0  0  0  0  0
   -1.0101    0.6632   -0.0684 C   0  0  0  0  0  0  0  0  0  0  0  0
   -3.0667    3.7523    0.0270 H   0  0  0  0  0  0  0  0  0  0  0  0
   -3.9518   -0.4380    1.3083 H   0  0  0  0  0  0  0  0  0  0  0  0
   -2.1306   -3.4806    1.2610 H   0  0  0  0  0  0  0  0  0  0  0  0
    0.5704   -2.6530   -0.0788 H   0  0  0  0  0  0  0  0  0  0  0  0
    2.0199   -1.1135    1.2999 H   0  0  0  0  0  0  0  0  0  0  0  0
    1.7043    0.6200    1.0473 H   0  0  0  0  0  0  0  0  0  0  0  0
    3.7303   -1.0510   -0.5490 H   0  0  0  0  0  0  0  0  0  0  0  0
    4.1317    0.0707    0.7557 H   0  0  0  0  0  0  0  0  0  0  0  0
    2.4838    1.6789   -2.6083 H   0  0  0  0  0  0  0  0  0  0  0  0
    1.7386    2.0026   -1.0439 H   0  0  0  0  0  0  0  0  0  0  0  0
    1.8949   -0.7342   -2.4318 H   0  0  0  0  0  0  0  0  0  0  0  0
    0.4469    0.2633   -2.3849 H   0  0  0  0  0  0  0  0  0  0  0  0
   -0.5484    1.5771   -0.4286 H   0  0  0  0  0  0  0  0  0  0  0  0
  1  2  2  0
  2  3  1  0
  2  4  1  0
  4  5  1  0
  5  6  2  0
  6  7  1  0
  6  8  1  0
  8  9  1  0
  8 10  2  0
 10 11  1  0
 11 12  1  0
 12 13  1  0
 13 14  1  0
 14 15  1  0
 15 16  1  0
 10 17  1  0
 17  4  2  0
 16 11  1  0
  3 18  1  0
  5 19  1  0
  7 20  1  0
  9 21  1  0
 12 22  1  0
 12 23  1  0
 13 24  1  0
 13 25  1  0
 15 26  1  0
 15 27  1  0
 16 28  1  0
 16 29  1  0
 17 30  1  0
M  END
$$$$
