
     RDKit          3D

 31 32  0  0  0  0  0  0  0  0999 V2000
   -6.5029    2.7133   -0.0615 N   0  0  0  0  0  0  0  0  0  0  0  0
   -5.6787    1.9290    0.1618 C   0  0  0  0  0  0  0  0  0  0  0  0
   -4.6600    0.9740    0.4443 C   0  0  0  0  0  0  0  0  0  0  0  0
   -4.7397    0.3020    1.6944 C   0  0  0  0  0  0  0  0  0  0  0  0
   -4.7713   -0.2770    2.6992 N   0  0  0  0  0  0  0  0  0  0  0  0
   -3.6481    0.7347   -0.4214 C   0  0  0  0  0  0  0  0  0  0  0  0
   -3.5820    1.4541   -1.6617 C   0  0  0  0  0  0  0  0  0  0  0  0
   -3.5013    2.0634   -2.6449 N   0  0  0  0  0  0  0  0  0  0  0  0
   -2.5713   -0.2510   -0.1914 C   0  0  0  0  0  0  0  0  0  0  0  0
   -2.9568   -1.5680    0.0240 N   0  0  0  0  0  0  0  0  0  0  0  0
   -1.2799    0.1392   -0.2884 C   0  0  0  0  0  0  0  0  0  0  0  0
   -0.1465   -0.6772   -0.1295 N   0  0  0  0  0  0  0  0  0  0  0  0
   -0.1868   -2.0098    0.1917 N   0  0  0  0  0  0  0  0  0  0  0  0
    1.0847   -2.3952    0.2559 C   0  0  0  0  0  0  0  0  0  0  0  0
    1.9875   -1.3555   -0.0110 C   0  0  0  0  0  0  0  0  0  0  0  0
    3.3880   -1.2363   -0.0687 C   0  0  0  0  0  0  0  0  0  0  0  0
    3.9559    0.0084   -0.3816 C   0  0  0  0  0  0  0  0  0  0  0  0
    5.4356    0.1001   -0.4346 C   0  0  0  0  0  0  0  0  0  0  0  0
    6.2117   -0.8144   -0.2291 O   0  0  0  0  0  0  0  0  0  0  0  0
    5.8729    1.3336   -0.7415 O   0  0  0  0  0  0  0  0  0  0  0  0
    3.1365    1.1131   -0.6334 C   0  0  0  0  0  0  0  0  0  0  0  0
    1.7405    1.0069   -0.5784 C   0  0  0  0  0  0  0  0  0  0  0  0
    1.1839   -0.2465   -0.2610 C   0  0  0  0  0  0  0  0  0  0  0  0
   -3.4869   -1.7129    0.8839 H   0  0  0  0  0  0  0  0  0  0  0  0
   -2.1238   -2.1766    0.1051 H   0  0  0  0  0  0  0  0  0  0  0  0
   -1.0400    1.1749   -0.5023 H   0  0  0  0  0  0  0  0  0  0  0  0
    1.3067   -3.4273    0.4971 H   0  0  0  0  0  0  0  0  0  0  0  0
    4.0213   -2.0991    0.1257 H   0  0  0  0  0  0  0  0  0  0  0  0
    6.8495    1.2446   -0.7426 H   0  0  0  0  0  0  0  0  0  0  0  0
    3.5767    2.0781   -0.8796 H   0  0  0  0  0  0  0  0  0  0  0  0
    1.1243    1.8773   -0.7829 H   0  0  0  0  0  0  0  0  0  0  0  0
  1  2  3  0
  2  3  1  0
  3  4  1  0
  4  5  3  0
  3  6  2  3
  6  7  1  0
  7  8  3  0
  6  9  1  0
  9 10  1  0
  9 11  2  3
 11 12  1  0
 12 13  1  0
 13 14  2  0
 14 15  1  0
 15 16  2  0
 16 17  1  0
 17 18  1  0
 18 19  2  0
 18 20  1  0
 17 21  2  0
 21 22  1  0
 22 23  2  0
 23 12  1  0
 23 15  1  0
 10 24  1  0
 10 25  1  0
 11 26  1  0
 14 27  1  0
 16 28  1  0
 20 29  1  0
 21 30  1  0
 22 31  1  0
M  END
$$$$
