
     RDKit          3D

 55 58  0  0  0  0  0  0  0  0999 V2000
   -5.3338   -1.8419    1.6985 C   0  0  0  0  0  0  0  0  0  0  0  0
   -4.8561   -0.8839    0.7102 N   0  0  0  0  0  0  0  0  0  0  0  0
   -3.4277   -0.9127    0.3947 C   0  0  0  0  0  0  0  0  0  0  0  0
   -2.6227    0.1087    1.2064 C   0  0  0  0  0  0  0  0  0  0  0  0
   -1.1804   -0.1920    1.1501 N   0  0  0  0  0  0  0  0  0  0  0  0
   -0.7064   -0.0328    0.0098 N   0  0  0  0  0  0  0  0  0  0  0  0
    0.6031   -0.3221    0.1191 N   0  0  0  0  0  0  0  0  0  0  0  0
    1.4666    0.0363   -0.9290 C   0  0  0  0  0  0  0  0  0  0  0  0
    1.0130    0.2819   -2.2245 C   0  0  0  0  0  0  0  0  0  0  0  0
    1.9147    0.5549   -3.2601 C   0  0  0  0  0  0  0  0  0  0  0  0
    3.2859    0.5716   -3.0538 C   0  0  0  0  0  0  0  0  0  0  0  0
    4.0854    0.8405   -4.0912 N   0  0  0  0  0  0  0  0  0  0  0  0
    5.4027    0.8555   -3.8573 C   0  0  0  0  0  0  0  0  0  0  0  0
    5.9944    0.6274   -2.6826 N   0  0  0  0  0  0  0  0  0  0  0  0
    5.1715    0.3482   -1.6484 C   0  0  0  0  0  0  0  0  0  0  0  0
    5.8923    0.1237   -0.3850 C   0  0  0  0  0  0  0  0  0  0  0  0
    5.9218   -1.1424    0.2313 C   0  0  0  0  0  0  0  0  0  0  0  0
    6.6152   -1.3529    1.4323 C   0  0  0  0  0  0  0  0  0  0  0  0
    7.3007   -0.2977    2.0318 C   0  0  0  0  0  0  0  0  0  0  0  0
    7.9431   -0.4940    3.2199 O   0  0  0  0  0  0  0  0  0  0  0  0
    7.2933    0.9546    1.4154 C   0  0  0  0  0  0  0  0  0  0  0  0
    7.9996    2.0731    2.0105 N   0  0  0  0  0  0  0  0  0  0  0  0
    7.3294    3.0866    2.2581 O   0  0  0  0  0  0  0  0  0  0  0  0
    9.2207    1.9578    2.1844 O   0  0  0  0  0  0  0  0  0  0  0  0
    6.5980    1.1764    0.2193 C   0  0  0  0  0  0  0  0  0  0  0  0
    3.7703    0.3041   -1.7681 C   0  0  0  0  0  0  0  0  0  0  0  0
    2.8499    0.0325   -0.7172 C   0  0  0  0  0  0  0  0  0  0  0  0
   -5.6509    0.1025    0.1156 C   0  0  0  0  0  0  0  0  0  0  0  0
   -5.1538    1.0430   -0.5048 O   0  0  0  0  0  0  0  0  0  0  0  0
   -7.1449    0.0454    0.2360 C   0  0  0  0  0  0  0  0  0  0  0  0
   -7.8586    1.2427    0.2678 C   0  0  0  0  0  0  0  0  0  0  0  0
   -9.2455    1.1859    0.3709 C   0  0  0  0  0  0  0  0  0  0  0  0
   -9.8725   -0.0553    0.4212 C   0  0  0  0  0  0  0  0  0  0  0  0
   -9.0847   -1.1976    0.3672 C   0  0  0  0  0  0  0  0  0  0  0  0
   -7.7373   -1.1798    0.2805 N   0  0  0  0  0  0  0  0  0  0  0  0
   -6.2321   -1.4855    2.2054 H   0  0  0  0  0  0  0  0  0  0  0  0
   -5.5329   -2.7947    1.1960 H   0  0  0  0  0  0  0  0  0  0  0  0
   -4.5633   -1.9887    2.4659 H   0  0  0  0  0  0  0  0  0  0  0  0
   -3.3036   -0.7030   -0.6748 H   0  0  0  0  0  0  0  0  0  0  0  0
   -3.0554   -1.9313    0.5614 H   0  0  0  0  0  0  0  0  0  0  0  0
   -2.9269    0.0748    2.2597 H   0  0  0  0  0  0  0  0  0  0  0  0
   -2.8133    1.1312    0.8562 H   0  0  0  0  0  0  0  0  0  0  0  0
    0.9741   -0.2297    1.0564 H   0  0  0  0  0  0  0  0  0  0  0  0
   -0.0511    0.2604   -2.4519 H   0  0  0  0  0  0  0  0  0  0  0  0
    1.5279    0.7533   -4.2577 H   0  0  0  0  0  0  0  0  0  0  0  0
    6.0489    1.0713   -4.7015 H   0  0  0  0  0  0  0  0  0  0  0  0
    5.4024   -1.9829   -0.2308 H   0  0  0  0  0  0  0  0  0  0  0  0
    6.6014   -2.3427    1.8834 H   0  0  0  0  0  0  0  0  0  0  0  0
    7.9571   -1.4414    3.4420 H   0  0  0  0  0  0  0  0  0  0  0  0
    6.6071    2.1609   -0.2480 H   0  0  0  0  0  0  0  0  0  0  0  0
    3.2225   -0.1804    0.2819 H   0  0  0  0  0  0  0  0  0  0  0  0
   -7.3434    2.1985    0.2246 H   0  0  0  0  0  0  0  0  0  0  0  0
   -9.8307    2.1031    0.4057 H   0  0  0  0  0  0  0  0  0  0  0  0
  -10.9517   -0.1319    0.4965 H   0  0  0  0  0  0  0  0  0  0  0  0
   -9.5332   -2.1895    0.4037 H   0  0  0  0  0  0  0  0  0  0  0  0
  1  2  1  0
  2  3  1  0
  3  4  1  0
  4  5  1  0
  5  6  2  0
  6  7  1  0
  7  8  1  0
  8  9  1  0
  9 10  2  0
 10 11  1  0
 11 12  2  0
 12 13  1  0
 13 14  2  0
 14 15  1  0
 15 16  1  0
 16 17  1  0
 17 18  2  0
 18 19  1  0
 19 20  1  0
 19 21  2  0
 21 22  1  0
 22 23  2  0
 22 24  1  0
 21 25  1  0
 15 26  2  0
 26 27  1  0
  2 28  1  0
 28 29  2  0
 28 30  1  0
 30 31  2  0
 31 32  1  0
 32 33  2  0
 33 34  1  0
 34 35  2  0
 27  8  2  0
 35 30  1  0
 26 11  1  0
 25 16  2  0
  1 36  1  0
  1 37  1  0
  1 38  1  0
  3 39  1  0
  3 40  1  0
  4 41  1  0
  4 42  1  0
  7 43  1  0
  9 44  1  0
 10 45  1  0
 13 46  1  0
 17 47  1  0
 18 48  1  0
 20 49  1  0
 25 50  1  0
 27 51  1  0
 31 52  1  0
 32 53  1  0
 33 54  1  0
 34 55  1  0
M  CHG  2  22   1  24  -1
M  END
$$$$
