
     RDKit          3D

 39 41  0  0  0  0  0  0  0  0999 V2000
   -2.3647   -1.9065    2.8641 C   0  0  0  0  0  0  0  0  0  0  0  0
   -1.9838   -1.2699    1.5807 C   0  0  0  0  0  0  0  0  0  0  0  0
   -2.6408   -1.2076    0.3728 C   0  0  0  0  0  0  0  0  0  0  0  0
   -1.8284   -0.4709   -0.5379 C   0  0  0  0  0  0  0  0  0  0  0  0
   -2.1558   -0.2487   -1.9733 C   0  0  0  0  0  0  0  0  0  0  0  0
   -0.6927   -0.0712    0.1615 C   0  0  0  0  0  0  0  0  0  0  0  0
    0.4073    0.7109   -0.2251 N   0  0  0  0  0  0  0  0  0  0  0  0
    1.7039    0.4416    0.2717 C   0  0  0  0  0  0  0  0  0  0  0  0
    2.5522    1.3151    0.4816 O   0  0  0  0  0  0  0  0  0  0  0  0
    2.1158   -0.9762    0.5448 C   0  0  0  0  0  0  0  0  0  0  0  0
    3.1087   -1.2197    1.4905 C   0  0  0  0  0  0  0  0  0  0  0  0
    3.4947   -2.5366    1.7251 C   0  0  0  0  0  0  0  0  0  0  0  0
    2.8882   -3.5615    1.0072 C   0  0  0  0  0  0  0  0  0  0  0  0
    1.9211   -3.2279    0.0732 C   0  0  0  0  0  0  0  0  0  0  0  0
    1.5276   -1.9619   -0.1787 N   0  0  0  0  0  0  0  0  0  0  0  0
    0.1468    1.9416   -0.9240 C   0  0  0  0  0  0  0  0  0  0  0  0
    1.1369    2.5020   -1.7524 C   0  0  0  0  0  0  0  0  0  0  0  0
    0.9150    3.6978   -2.4423 C   0  0  0  0  0  0  0  0  0  0  0  0
   -0.3012    4.3532   -2.3070 C   0  0  0  0  0  0  0  0  0  0  0  0
   -0.4968    5.4981   -2.9775 F   0  0  0  0  0  0  0  0  0  0  0  0
   -1.2936    3.8280   -1.4865 C   0  0  0  0  0  0  0  0  0  0  0  0
   -2.8017    4.6407   -1.3060 Cl  0  0  0  0  0  0  0  0  0  0  0  0
   -1.0716    2.6332   -0.7959 C   0  0  0  0  0  0  0  0  0  0  0  0
   -0.7957   -0.6018    1.4298 N   0  0  0  0  0  0  0  0  0  0  0  0
   -3.2362   -2.5564    2.7357 H   0  0  0  0  0  0  0  0  0  0  0  0
   -2.6151   -1.1436    3.6083 H   0  0  0  0  0  0  0  0  0  0  0  0
   -1.5435   -2.5162    3.2549 H   0  0  0  0  0  0  0  0  0  0  0  0
   -3.6007   -1.6598    0.1549 H   0  0  0  0  0  0  0  0  0  0  0  0
   -1.2533   -0.0994   -2.5736 H   0  0  0  0  0  0  0  0  0  0  0  0
   -2.6810   -1.1173   -2.3848 H   0  0  0  0  0  0  0  0  0  0  0  0
   -2.8060    0.6236   -2.0899 H   0  0  0  0  0  0  0  0  0  0  0  0
    3.5773   -0.4019    2.0293 H   0  0  0  0  0  0  0  0  0  0  0  0
    4.2668   -2.7597    2.4565 H   0  0  0  0  0  0  0  0  0  0  0  0
    3.1685   -4.5974    1.1656 H   0  0  0  0  0  0  0  0  0  0  0  0
    1.4225   -3.9930   -0.5160 H   0  0  0  0  0  0  0  0  0  0  0  0
    2.0950    2.0032   -1.8867 H   0  0  0  0  0  0  0  0  0  0  0  0
    1.6856    4.1171   -3.0817 H   0  0  0  0  0  0  0  0  0  0  0  0
   -1.8519    2.2643   -0.1353 H   0  0  0  0  0  0  0  0  0  0  0  0
   -0.1192   -0.4655    2.1663 H   0  0  0  0  0  0  0  0  0  0  0  0
  1  2  1  0
  2  3  2  0
  3  4  1  0
  4  5  1  0
  4  6  2  0
  6  7  1  0
  7  8  1  0
  8  9  2  0
  8 10  1  0
 10 11  2  0
 11 12  1  0
 12 13  2  0
 13 14  1  0
 14 15  2  0
  7 16  1  0
 16 17  1  0
 17 18  2  0
 18 19  1  0
 19 20  1  0
 19 21  2  0
 21 22  1  0
 21 23  1  0
  6 24  1  0
 24  2  1  0
 15 10  1  0
 23 16  2  0
  1 25  1  0
  1 26  1  0
  1 27  1  0
  3 28  1  0
  5 29  1  0
  5 30  1  0
  5 31  1  0
 11 32  1  0
 12 33  1  0
 13 34  1  0
 14 35  1  0
 17 36  1  0
 18 37  1  0
 23 38  1  0
 24 39  1  0
M  END
$$$$
