
     RDKit          3D

 37 39  0  0  0  0  0  0  0  0999 V2000
   -0.0544    4.3056   -0.6231 C   0  0  0  0  0  0  0  0  0  0  0  0
   -0.0070    2.8893   -0.3755 N   0  0  0  0  0  0  0  0  0  0  0  0
    0.9413    2.0218   -0.8614 C   0  0  0  0  0  0  0  0  0  0  0  0
    1.9088    2.2812   -1.5535 O   0  0  0  0  0  0  0  0  0  0  0  0
    0.5507    0.6571   -0.3206 C   0  0  0  0  0  0  0  0  0  0  0  0
    1.3913   -0.3999   -0.4415 C   0  0  0  0  0  0  0  0  0  0  0  0
    1.2773   -1.6053    0.2203 N   0  0  0  0  0  0  0  0  0  0  0  0
    2.6281   -0.3244   -1.2460 C   0  0  0  0  0  0  0  0  0  0  0  0
    2.4995   -0.7432   -2.6088 C   0  0  0  0  0  0  0  0  0  0  0  0
    2.3733   -1.1177   -3.6992 N   0  0  0  0  0  0  0  0  0  0  0  0
    3.8137    0.0879   -0.7434 C   0  0  0  0  0  0  0  0  0  0  0  0
    4.9897    0.1285   -1.5443 C   0  0  0  0  0  0  0  0  0  0  0  0
    5.9521    0.1406   -2.1918 N   0  0  0  0  0  0  0  0  0  0  0  0
    3.9319    0.5057    0.6131 C   0  0  0  0  0  0  0  0  0  0  0  0
    4.0197    0.8567    1.7159 N   0  0  0  0  0  0  0  0  0  0  0  0
   -0.7499    0.8462    0.3609 C   0  0  0  0  0  0  0  0  0  0  0  0
   -1.7922    0.0958    0.8620 C   0  0  0  0  0  0  0  0  0  0  0  0
   -1.8954   -1.3692    0.8507 C   0  0  0  0  0  0  0  0  0  0  0  0
   -2.9131   -2.0152    0.1467 C   0  0  0  0  0  0  0  0  0  0  0  0
   -3.0348   -3.3997    0.2395 C   0  0  0  0  0  0  0  0  0  0  0  0
   -2.1566   -4.1064    1.0494 C   0  0  0  0  0  0  0  0  0  0  0  0
   -1.1794   -3.3974    1.7240 C   0  0  0  0  0  0  0  0  0  0  0  0
   -1.0120   -2.0544    1.6237 N   0  0  0  0  0  0  0  0  0  0  0  0
   -2.9190    0.6908    1.3584 N   0  0  0  0  0  0  0  0  0  0  0  0
   -2.9955    2.0288    1.3356 C   0  0  0  0  0  0  0  0  0  0  0  0
   -2.0844    2.8442    0.8118 N   0  0  0  0  0  0  0  0  0  0  0  0
   -1.0065    2.2146    0.3289 C   0  0  0  0  0  0  0  0  0  0  0  0
    0.8438    4.6281   -1.1574 H   0  0  0  0  0  0  0  0  0  0  0  0
   -0.1139    4.8412    0.3290 H   0  0  0  0  0  0  0  0  0  0  0  0
   -0.9313    4.5363   -1.2354 H   0  0  0  0  0  0  0  0  0  0  0  0
    0.4781   -1.6771    0.8607 H   0  0  0  0  0  0  0  0  0  0  0  0
    1.2920   -2.4232   -0.3879 H   0  0  0  0  0  0  0  0  0  0  0  0
   -3.6213   -1.4447   -0.4475 H   0  0  0  0  0  0  0  0  0  0  0  0
   -3.8258   -3.9170   -0.2969 H   0  0  0  0  0  0  0  0  0  0  0  0
   -2.2393   -5.1822    1.1610 H   0  0  0  0  0  0  0  0  0  0  0  0
   -0.4752   -3.9036    2.3799 H   0  0  0  0  0  0  0  0  0  0  0  0
   -3.8843    2.4805    1.7627 H   0  0  0  0  0  0  0  0  0  0  0  0
  1  2  1  0
  2  3  1  0
  3  4  2  0
  3  5  1  0
  5  6  2  3
  6  7  1  0
  6  8  1  0
  8  9  1  0
  9 10  3  0
  8 11  2  3
 11 12  1  0
 12 13  3  0
 11 14  1  0
 14 15  3  0
  5 16  1  0
 16 17  2  0
 17 18  1  0
 18 19  2  0
 19 20  1  0
 20 21  2  0
 21 22  1  0
 22 23  2  0
 17 24  1  0
 24 25  2  0
 25 26  1  0
 26 27  2  0
 27  2  1  0
 27 16  1  0
 23 18  1  0
  1 28  1  0
  1 29  1  0
  1 30  1  0
  7 31  1  0
  7 32  1  0
 19 33  1  0
 20 34  1  0
 21 35  1  0
 22 36  1  0
 25 37  1  0
M  END
$$$$
