
     RDKit          3D

 24 25  0  0  0  0  0  0  0  0999 V2000
   -2.9758   -2.5173   -0.6719 O   0  0  0  0  0  0  0  0  0  0  0  0
   -3.3856   -1.3917   -0.3557 N   0  0  0  0  0  0  0  0  0  0  0  0
   -4.5835   -1.0931   -0.2217 O   0  0  0  0  0  0  0  0  0  0  0  0
   -2.3962   -0.3354   -0.1302 C   0  0  0  0  0  0  0  0  0  0  0  0
   -1.0284   -0.6662   -0.1966 C   0  0  0  0  0  0  0  0  0  0  0  0
   -0.0359    0.3103    0.0058 C   0  0  0  0  0  0  0  0  0  0  0  0
    1.4069   -0.0083   -0.0567 C   0  0  0  0  0  0  0  0  0  0  0  0
    1.9363   -0.9867   -0.8995 C   0  0  0  0  0  0  0  0  0  0  0  0
    3.3099   -1.2254   -0.8922 C   0  0  0  0  0  0  0  0  0  0  0  0
    4.1253   -0.4844   -0.0488 C   0  0  0  0  0  0  0  0  0  0  0  0
    3.5304    0.4723    0.7525 C   0  0  0  0  0  0  0  0  0  0  0  0
    2.2027    0.7250    0.7633 N   0  0  0  0  0  0  0  0  0  0  0  0
   -0.4677    1.6204    0.2884 C   0  0  0  0  0  0  0  0  0  0  0  0
   -1.8256    1.9515    0.3544 C   0  0  0  0  0  0  0  0  0  0  0  0
   -2.7953    0.9768    0.1449 C   0  0  0  0  0  0  0  0  0  0  0  0
   -4.0891    1.4112    0.2328 O   0  0  0  0  0  0  0  0  0  0  0  0
   -0.7320   -1.6966   -0.3864 H   0  0  0  0  0  0  0  0  0  0  0  0
    1.3036   -1.5555   -1.5727 H   0  0  0  0  0  0  0  0  0  0  0  0
    3.7376   -1.9823   -1.5438 H   0  0  0  0  0  0  0  0  0  0  0  0
    5.1969   -0.6452   -0.0186 H   0  0  0  0  0  0  0  0  0  0  0  0
    4.1219    1.0821    1.4295 H   0  0  0  0  0  0  0  0  0  0  0  0
    0.2694    2.4051    0.4620 H   0  0  0  0  0  0  0  0  0  0  0  0
   -2.1206    2.9753    0.5740 H   0  0  0  0  0  0  0  0  0  0  0  0
   -4.7049    0.6578    0.1129 H   0  0  0  0  0  0  0  0  0  0  0  0
  1  2  2  0
  2  3  1  0
  2  4  1  0
  4  5  1  0
  5  6  2  0
  6  7  1  0
  7  8  2  0
  8  9  1  0
  9 10  2  0
 10 11  1  0
 11 12  2  0
  6 13  1  0
 13 14  2  0
 14 15  1  0
 15 16  1  0
 15  4  2  0
 12  7  1  0
  5 17  1  0
  8 18  1  0
  9 19  1  0
 10 20  1  0
 11 21  1  0
 13 22  1  0
 14 23  1  0
 16 24  1  0
M  CHG  2   2   1   3  -1
M  END
$$$$
