
     RDKit          3D

 54 57  0  0  0  0  0  0  0  0999 V2000
   -4.9334    2.9959    2.3847 C   0  0  0  0  0  0  0  0  0  0  0  0
   -4.2304    3.0422    1.0366 C   0  0  0  0  0  0  0  0  0  0  0  0
   -3.6555    1.7281    0.7058 N   0  0  0  0  0  0  0  0  0  0  0  0
   -2.2281    1.5633    1.0648 C   0  0  0  0  0  0  0  0  0  0  0  0
   -1.2869    1.9501   -0.0918 C   0  0  0  0  0  0  0  0  0  0  0  0
   -1.0538    0.7950   -0.9800 N   0  0  0  0  0  0  0  0  0  0  0  0
   -0.0282    0.1678   -0.6630 N   0  0  0  0  0  0  0  0  0  0  0  0
    0.0015   -0.9184   -1.4530 N   0  0  0  0  0  0  0  0  0  0  0  0
    1.2135   -1.6030   -1.6475 C   0  0  0  0  0  0  0  0  0  0  0  0
    1.2426   -2.7252   -2.4719 C   0  0  0  0  0  0  0  0  0  0  0  0
    2.4185   -3.4727   -2.6248 C   0  0  0  0  0  0  0  0  0  0  0  0
    3.5921   -3.1382   -1.9643 C   0  0  0  0  0  0  0  0  0  0  0  0
    4.6737   -3.8997   -2.1495 N   0  0  0  0  0  0  0  0  0  0  0  0
    5.7832   -3.5487   -1.4844 C   0  0  0  0  0  0  0  0  0  0  0  0
    5.9184   -2.5002   -0.6690 N   0  0  0  0  0  0  0  0  0  0  0  0
    4.8199   -1.7311   -0.5062 C   0  0  0  0  0  0  0  0  0  0  0  0
    5.0500   -0.5422    0.3374 C   0  0  0  0  0  0  0  0  0  0  0  0
    5.4017   -0.6760    1.6916 C   0  0  0  0  0  0  0  0  0  0  0  0
    5.6091    0.4487    2.4926 C   0  0  0  0  0  0  0  0  0  0  0  0
    5.4718    1.7278    1.9502 C   0  0  0  0  0  0  0  0  0  0  0  0
    5.1456    1.8722    0.6046 C   0  0  0  0  0  0  0  0  0  0  0  0
    4.9901    3.4404   -0.0749 Cl  0  0  0  0  0  0  0  0  0  0  0  0
    4.9434    0.7519   -0.1995 C   0  0  0  0  0  0  0  0  0  0  0  0
    3.5874   -2.0191   -1.1254 C   0  0  0  0  0  0  0  0  0  0  0  0
    2.3834   -1.2837   -0.9535 C   0  0  0  0  0  0  0  0  0  0  0  0
   -4.3897    0.7365    0.0707 C   0  0  0  0  0  0  0  0  0  0  0  0
   -5.7319    0.9302   -0.3161 C   0  0  0  0  0  0  0  0  0  0  0  0
   -6.4772   -0.0505   -0.9821 C   0  0  0  0  0  0  0  0  0  0  0  0
   -5.8935   -1.2667   -1.2806 C   0  0  0  0  0  0  0  0  0  0  0  0
   -6.6187   -2.1980   -1.9232 F   0  0  0  0  0  0  0  0  0  0  0  0
   -4.5819   -1.5120   -0.9065 C   0  0  0  0  0  0  0  0  0  0  0  0
   -3.8314   -3.0155   -1.2813 Cl  0  0  0  0  0  0  0  0  0  0  0  0
   -3.8496   -0.5271   -0.2311 C   0  0  0  0  0  0  0  0  0  0  0  0
   -4.2466    2.6633    3.1743 H   0  0  0  0  0  0  0  0  0  0  0  0
   -5.3005    3.9938    2.6536 H   0  0  0  0  0  0  0  0  0  0  0  0
   -5.7852    2.3065    2.3734 H   0  0  0  0  0  0  0  0  0  0  0  0
   -4.8966    3.4146    0.2536 H   0  0  0  0  0  0  0  0  0  0  0  0
   -3.4327    3.7938    1.0917 H   0  0  0  0  0  0  0  0  0  0  0  0
   -2.0175    0.5602    1.4575 H   0  0  0  0  0  0  0  0  0  0  0  0
   -2.0068    2.2354    1.9078 H   0  0  0  0  0  0  0  0  0  0  0  0
   -1.7111    2.7646   -0.6833 H   0  0  0  0  0  0  0  0  0  0  0  0
   -0.3351    2.3147    0.3162 H   0  0  0  0  0  0  0  0  0  0  0  0
   -0.6428   -0.9148   -2.2396 H   0  0  0  0  0  0  0  0  0  0  0  0
    0.3454   -3.0453   -2.9969 H   0  0  0  0  0  0  0  0  0  0  0  0
    2.4125   -4.3464   -3.2696 H   0  0  0  0  0  0  0  0  0  0  0  0
    6.6544   -4.1728   -1.6255 H   0  0  0  0  0  0  0  0  0  0  0  0
    5.5178   -1.6706    2.1260 H   0  0  0  0  0  0  0  0  0  0  0  0
    5.8792    0.3271    3.5382 H   0  0  0  0  0  0  0  0  0  0  0  0
    5.6263    2.6031    2.5776 H   0  0  0  0  0  0  0  0  0  0  0  0
    4.7029    0.8817   -1.2518 H   0  0  0  0  0  0  0  0  0  0  0  0
    2.3688   -0.4440   -0.2652 H   0  0  0  0  0  0  0  0  0  0  0  0
   -6.2468    1.8596   -0.1039 H   0  0  0  0  0  0  0  0  0  0  0  0
   -7.5068    0.1380   -1.2709 H   0  0  0  0  0  0  0  0  0  0  0  0
   -2.8349   -0.7853    0.0503 H   0  0  0  0  0  0  0  0  0  0  0  0
  1  2  1  0
  2  3  1  0
  3  4  1  0
  4  5  1  0
  5  6  1  0
  6  7  2  0
  7  8  1  0
  8  9  1  0
  9 10  1  0
 10 11  2  0
 11 12  1  0
 12 13  2  0
 13 14  1  0
 14 15  2  0
 15 16  1  0
 16 17  1  0
 17 18  2  0
 18 19  1  0
 19 20  2  0
 20 21  1  0
 21 22  1  0
 21 23  2  0
 16 24  2  0
 24 25  1  0
  3 26  1  0
 26 27  1  0
 27 28  2  0
 28 29  1  0
 29 30  1  0
 29 31  2  0
 31 32  1  0
 31 33  1  0
 25  9  2  0
 33 26  2  0
 24 12  1  0
 23 17  1  0
  1 34  1  0
  1 35  1  0
  1 36  1  0
  2 37  1  0
  2 38  1  0
  4 39  1  0
  4 40  1  0
  5 41  1  0
  5 42  1  0
  8 43  1  0
 10 44  1  0
 11 45  1  0
 14 46  1  0
 18 47  1  0
 19 48  1  0
 20 49  1  0
 23 50  1  0
 25 51  1  0
 27 52  1  0
 28 53  1  0
 33 54  1  0
M  END
$$$$
