
     RDKit          3D

 39 40  0  0  0  0  0  0  0  0999 V2000
   -1.8137    2.5696   -1.0208 C   0  0  0  0  0  0  0  0  0  0  0  0
   -0.9503    1.5024   -0.4489 C   0  0  0  0  0  0  0  0  0  0  0  0
    0.4773    1.5306   -0.4568 C   0  0  0  0  0  0  0  0  0  0  0  0
    0.9368    0.3727    0.1311 C   0  0  0  0  0  0  0  0  0  0  0  0
    2.2146   -0.1645    0.4250 C   0  0  0  0  0  0  0  0  0  0  0  0
    3.2378   -0.1737   -0.4590 C   0  0  0  0  0  0  0  0  0  0  0  0
    3.1367    0.2275   -1.7888 N   0  0  0  0  0  0  0  0  0  0  0  0
    4.5356   -0.7517   -0.0520 C   0  0  0  0  0  0  0  0  0  0  0  0
    4.4915   -2.0852    0.4754 C   0  0  0  0  0  0  0  0  0  0  0  0
    4.4458   -3.1510    0.9302 N   0  0  0  0  0  0  0  0  0  0  0  0
    5.7189   -0.1074   -0.1731 C   0  0  0  0  0  0  0  0  0  0  0  0
    6.9471   -0.7150    0.2149 C   0  0  0  0  0  0  0  0  0  0  0  0
    7.9475   -1.2047    0.5374 N   0  0  0  0  0  0  0  0  0  0  0  0
    5.7871    1.2223   -0.6731 C   0  0  0  0  0  0  0  0  0  0  0  0
    5.7942    2.3044   -1.0922 N   0  0  0  0  0  0  0  0  0  0  0  0
   -0.1699   -0.3409    0.5147 N   0  0  0  0  0  0  0  0  0  0  0  0
   -1.3283    0.3128    0.1585 C   0  0  0  0  0  0  0  0  0  0  0  0
   -2.5351   -0.2415    0.4603 N   0  0  0  0  0  0  0  0  0  0  0  0
   -2.7308   -1.6993    0.5611 C   0  0  0  0  0  0  0  0  0  0  0  0
   -4.1408   -2.0866    0.0855 C   0  0  0  0  0  0  0  0  0  0  0  0
   -5.1951   -1.4618    0.8306 O   0  0  0  0  0  0  0  0  0  0  0  0
   -4.8393   -0.1656    1.3345 C   0  0  0  0  0  0  0  0  0  0  0  0
   -3.7685    0.5582    0.5008 C   0  0  0  0  0  0  0  0  0  0  0  0
   -2.3084    3.1339   -0.2248 H   0  0  0  0  0  0  0  0  0  0  0  0
   -1.2233    3.2774   -1.6124 H   0  0  0  0  0  0  0  0  0  0  0  0
   -2.5739    2.1444   -1.6830 H   0  0  0  0  0  0  0  0  0  0  0  0
    1.0948    2.3301   -0.8472 H   0  0  0  0  0  0  0  0  0  0  0  0
    2.3493   -0.5671    1.4285 H   0  0  0  0  0  0  0  0  0  0  0  0
    2.1553    0.3607   -2.0487 H   0  0  0  0  0  0  0  0  0  0  0  0
    3.5763    1.1380   -1.9436 H   0  0  0  0  0  0  0  0  0  0  0  0
   -0.1530   -1.2215    1.0049 H   0  0  0  0  0  0  0  0  0  0  0  0
   -2.0000   -2.2412   -0.0504 H   0  0  0  0  0  0  0  0  0  0  0  0
   -2.5965   -1.9965    1.6077 H   0  0  0  0  0  0  0  0  0  0  0  0
   -4.2741   -1.8177   -0.9691 H   0  0  0  0  0  0  0  0  0  0  0  0
   -4.2800   -3.1694    0.1654 H   0  0  0  0  0  0  0  0  0  0  0  0
   -4.4910   -0.2979    2.3657 H   0  0  0  0  0  0  0  0  0  0  0  0
   -5.7547    0.4335    1.3738 H   0  0  0  0  0  0  0  0  0  0  0  0
   -3.5829    1.5354    0.9590 H   0  0  0  0  0  0  0  0  0  0  0  0
   -4.1366    0.7064   -0.5208 H   0  0  0  0  0  0  0  0  0  0  0  0
  1  2  1  0
  2  3  1  0
  3  4  2  0
  4  5  1  0
  5  6  2  3
  6  7  1  0
  6  8  1  0
  8  9  1  0
  9 10  3  0
  8 11  2  3
 11 12  1  0
 12 13  3  0
 11 14  1  0
 14 15  3  0
  4 16  1  0
 16 17  1  0
 17 18  1  0
 18 19  1  0
 19 20  1  0
 20 21  1  0
 21 22  1  0
 22 23  1  0
 17  2  2  0
 23 18  1  0
  1 24  1  0
  1 25  1  0
  1 26  1  0
  3 27  1  0
  5 28  1  0
  7 29  1  0
  7 30  1  0
 16 31  1  0
 19 32  1  0
 19 33  1  0
 20 34  1  0
 20 35  1  0
 22 36  1  0
 22 37  1  0
 23 38  1  0
 23 39  1  0
M  END
$$$$
