
     RDKit          3D

 37 39  0  0  0  0  0  0  0  0999 V2000
    2.1056   -1.8646   -1.3917 C   0  0  0  0  0  0  0  0  0  0  0  0
    2.0486   -0.5440   -0.7503 N   0  0  0  0  0  0  0  0  0  0  0  0
    3.3541   -0.0248   -0.4951 C   0  0  0  0  0  0  0  0  0  0  0  0
    3.5008    1.2785   -0.0035 C   0  0  0  0  0  0  0  0  0  0  0  0
    4.7710    1.8060    0.2277 C   0  0  0  0  0  0  0  0  0  0  0  0
    5.8845    1.0295   -0.0457 C   0  0  0  0  0  0  0  0  0  0  0  0
    5.6743   -0.2395   -0.5490 C   0  0  0  0  0  0  0  0  0  0  0  0
    4.4519   -0.7681   -0.7838 N   0  0  0  0  0  0  0  0  0  0  0  0
    0.9784   -0.2953    0.0620 C   0  0  0  0  0  0  0  0  0  0  0  0
    0.8608    0.0099    1.4021 C   0  0  0  0  0  0  0  0  0  0  0  0
   -0.5175    0.1666    1.6914 C   0  0  0  0  0  0  0  0  0  0  0  0
   -1.2248   -0.0351    0.5194 C   0  0  0  0  0  0  0  0  0  0  0  0
   -2.6608    0.0160    0.2469 C   0  0  0  0  0  0  0  0  0  0  0  0
   -3.1294    0.8450   -0.7836 C   0  0  0  0  0  0  0  0  0  0  0  0
   -4.4956    0.9389   -1.0558 C   0  0  0  0  0  0  0  0  0  0  0  0
   -4.8778    1.7650   -2.0709 O   0  0  0  0  0  0  0  0  0  0  0  0
   -5.4322    0.2205   -0.3179 C   0  0  0  0  0  0  0  0  0  0  0  0
   -4.9931   -0.6121    0.7098 C   0  0  0  0  0  0  0  0  0  0  0  0
   -3.6179   -0.7054    0.9758 C   0  0  0  0  0  0  0  0  0  0  0  0
   -3.2114   -1.6216    2.0193 N   0  0  0  0  0  0  0  0  0  0  0  0
   -2.7492   -2.7135    1.6625 O   0  0  0  0  0  0  0  0  0  0  0  0
   -3.4134   -1.2632    3.1878 O   0  0  0  0  0  0  0  0  0  0  0  0
   -0.2929   -0.3143   -0.4568 N   0  0  0  0  0  0  0  0  0  0  0  0
    2.7217   -1.8420   -2.2991 H   0  0  0  0  0  0  0  0  0  0  0  0
    1.1129   -2.2001   -1.7150 H   0  0  0  0  0  0  0  0  0  0  0  0
    2.5000   -2.6233   -0.7045 H   0  0  0  0  0  0  0  0  0  0  0  0
    2.6284    1.8957    0.1854 H   0  0  0  0  0  0  0  0  0  0  0  0
    4.8810    2.8155    0.6118 H   0  0  0  0  0  0  0  0  0  0  0  0
    6.8876    1.4036    0.1210 H   0  0  0  0  0  0  0  0  0  0  0  0
    6.5099   -0.8907   -0.7886 H   0  0  0  0  0  0  0  0  0  0  0  0
    1.6787    0.0930    2.1058 H   0  0  0  0  0  0  0  0  0  0  0  0
   -0.9408    0.4090    2.6588 H   0  0  0  0  0  0  0  0  0  0  0  0
   -2.4370    1.4440   -1.3721 H   0  0  0  0  0  0  0  0  0  0  0  0
   -5.8473    1.7627   -2.1382 H   0  0  0  0  0  0  0  0  0  0  0  0
   -6.4949    0.2950   -0.5292 H   0  0  0  0  0  0  0  0  0  0  0  0
   -5.7123   -1.1849    1.2913 H   0  0  0  0  0  0  0  0  0  0  0  0
   -0.5017   -0.4923   -1.4280 H   0  0  0  0  0  0  0  0  0  0  0  0
  1  2  1  0
  2  3  1  0
  3  4  2  0
  4  5  1  0
  5  6  2  0
  6  7  1  0
  7  8  2  0
  2  9  1  0
  9 10  2  0
 10 11  1  0
 11 12  2  0
 12 13  1  0
 13 14  1  0
 14 15  2  0
 15 16  1  0
 15 17  1  0
 17 18  2  0
 18 19  1  0
 19 20  1  0
 20 21  2  0
 20 22  1  0
 12 23  1  0
  8  3  1  0
 23  9  1  0
 19 13  2  0
  1 24  1  0
  1 25  1  0
  1 26  1  0
  4 27  1  0
  5 28  1  0
  6 29  1  0
  7 30  1  0
 10 31  1  0
 11 32  1  0
 14 33  1  0
 16 34  1  0
 17 35  1  0
 18 36  1  0
 23 37  1  0
M  CHG  2  20   1  22  -1
M  END
$$$$
