
     RDKit          3D

 30 30  0  0  0  0  0  0  0  0999 V2000
    3.4902    0.2079   -1.2444 C   0  0  0  0  0  0  0  0  0  0  0  0
    3.1524    0.5694    0.0892 O   0  0  0  0  0  0  0  0  0  0  0  0
    1.9671    0.1723    0.5623 C   0  0  0  0  0  0  0  0  0  0  0  0
    1.1688   -0.7769   -0.0331 N   0  0  0  0  0  0  0  0  0  0  0  0
   -0.0034   -0.9151    0.6711 C   0  0  0  0  0  0  0  0  0  0  0  0
   -0.9960   -1.8015    0.1937 C   0  0  0  0  0  0  0  0  0  0  0  0
   -1.8424   -1.4804   -0.8088 C   0  0  0  0  0  0  0  0  0  0  0  0
   -2.8204   -2.3576   -1.2397 N   0  0  0  0  0  0  0  0  0  0  0  0
   -1.7761   -0.1746   -1.4827 C   0  0  0  0  0  0  0  0  0  0  0  0
   -0.9108   -0.1147   -2.6209 C   0  0  0  0  0  0  0  0  0  0  0  0
   -0.1764   -0.0688   -3.5177 N   0  0  0  0  0  0  0  0  0  0  0  0
   -2.4232    0.9216   -1.0302 C   0  0  0  0  0  0  0  0  0  0  0  0
   -3.2662    0.8537    0.1151 C   0  0  0  0  0  0  0  0  0  0  0  0
   -3.9696    0.7770    1.0347 N   0  0  0  0  0  0  0  0  0  0  0  0
   -2.3063    2.1807   -1.6834 C   0  0  0  0  0  0  0  0  0  0  0  0
   -2.2234    3.2026   -2.2254 N   0  0  0  0  0  0  0  0  0  0  0  0
    0.0866   -0.1134    1.7868 C   0  0  0  0  0  0  0  0  0  0  0  0
    1.3257    0.5826    1.7196 C   0  0  0  0  0  0  0  0  0  0  0  0
    1.8400    1.5732    2.7007 C   0  0  0  0  0  0  0  0  0  0  0  0
    3.6292   -0.8747   -1.3304 H   0  0  0  0  0  0  0  0  0  0  0  0
    4.4388    0.6915   -1.4958 H   0  0  0  0  0  0  0  0  0  0  0  0
    2.7314    0.5591   -1.9516 H   0  0  0  0  0  0  0  0  0  0  0  0
    1.4011   -1.2813   -0.8773 H   0  0  0  0  0  0  0  0  0  0  0  0
   -1.0820   -2.7620    0.6970 H   0  0  0  0  0  0  0  0  0  0  0  0
   -3.6761   -1.9309   -1.5885 H   0  0  0  0  0  0  0  0  0  0  0  0
   -3.0220   -3.1134   -0.5856 H   0  0  0  0  0  0  0  0  0  0  0  0
   -0.6627   -0.0205    2.5642 H   0  0  0  0  0  0  0  0  0  0  0  0
    2.0343    2.5327    2.2106 H   0  0  0  0  0  0  0  0  0  0  0  0
    1.1186    1.7441    3.5062 H   0  0  0  0  0  0  0  0  0  0  0  0
    2.7727    1.2173    3.1500 H   0  0  0  0  0  0  0  0  0  0  0  0
  1  2  1  0
  2  3  1  0
  3  4  1  0
  4  5  1  0
  5  6  1  0
  6  7  2  3
  7  8  1  0
  7  9  1  0
  9 10  1  0
 10 11  3  0
  9 12  2  3
 12 13  1  0
 13 14  3  0
 12 15  1  0
 15 16  3  0
  5 17  2  0
 17 18  1  0
 18 19  1  0
 18  3  2  0
  1 20  1  0
  1 21  1  0
  1 22  1  0
  4 23  1  0
  6 24  1  0
  8 25  1  0
  8 26  1  0
 17 27  1  0
 19 28  1  0
 19 29  1  0
 19 30  1  0
M  END
$$$$
