
     RDKit          3D

 29 30  0  0  0  0  0  0  0  0999 V2000
   -3.8399    1.9699    0.6959 C   0  0  0  0  0  0  0  0  0  0  0  0
   -2.8880    0.9256    0.2460 C   0  0  0  0  0  0  0  0  0  0  0  0
   -3.0903   -0.2339   -0.4687 C   0  0  0  0  0  0  0  0  0  0  0  0
   -1.8315   -0.8794   -0.6305 C   0  0  0  0  0  0  0  0  0  0  0  0
   -1.6045   -2.1577   -1.3579 C   0  0  0  0  0  0  0  0  0  0  0  0
   -0.8818   -0.0858    0.0027 C   0  0  0  0  0  0  0  0  0  0  0  0
    0.5596   -0.2610    0.1663 C   0  0  0  0  0  0  0  0  0  0  0  0
    1.0727   -1.4523    0.6931 C   0  0  0  0  0  0  0  0  0  0  0  0
    2.4502   -1.6290    0.8491 C   0  0  0  0  0  0  0  0  0  0  0  0
    3.3343   -0.6174    0.4797 C   0  0  0  0  0  0  0  0  0  0  0  0
    4.6582   -0.9011    0.6750 O   0  0  0  0  0  0  0  0  0  0  0  0
    2.8303    0.5797   -0.0451 C   0  0  0  0  0  0  0  0  0  0  0  0
    3.7277    1.6682   -0.4350 N   0  0  0  0  0  0  0  0  0  0  0  0
    3.2234    2.7463   -0.7783 O   0  0  0  0  0  0  0  0  0  0  0  0
    4.9488    1.4470   -0.3897 O   0  0  0  0  0  0  0  0  0  0  0  0
    1.4453    0.7589   -0.2026 C   0  0  0  0  0  0  0  0  0  0  0  0
   -1.5472    1.0037    0.5225 N   0  0  0  0  0  0  0  0  0  0  0  0
   -3.8351    2.0499    1.7876 H   0  0  0  0  0  0  0  0  0  0  0  0
   -4.8604    1.7343    0.3775 H   0  0  0  0  0  0  0  0  0  0  0  0
   -3.5697    2.9436    0.2751 H   0  0  0  0  0  0  0  0  0  0  0  0
   -4.0453   -0.5837   -0.8416 H   0  0  0  0  0  0  0  0  0  0  0  0
   -1.4899   -2.9838   -0.6492 H   0  0  0  0  0  0  0  0  0  0  0  0
   -2.4482   -2.3896   -2.0162 H   0  0  0  0  0  0  0  0  0  0  0  0
   -0.7044   -2.1011   -1.9784 H   0  0  0  0  0  0  0  0  0  0  0  0
    0.3996   -2.2523    0.9959 H   0  0  0  0  0  0  0  0  0  0  0  0
    2.8324   -2.5605    1.2610 H   0  0  0  0  0  0  0  0  0  0  0  0
    5.2119   -0.1628    0.3434 H   0  0  0  0  0  0  0  0  0  0  0  0
    1.0500    1.6791   -0.6295 H   0  0  0  0  0  0  0  0  0  0  0  0
   -1.1084    1.7451    1.0517 H   0  0  0  0  0  0  0  0  0  0  0  0
  1  2  1  0
  2  3  2  0
  3  4  1  0
  4  5  1  0
  4  6  2  0
  6  7  1  0
  7  8  1  0
  8  9  2  0
  9 10  1  0
 10 11  1  0
 10 12  2  0
 12 13  1  0
 13 14  2  0
 13 15  1  0
 12 16  1  0
  6 17  1  0
 17  2  1  0
 16  7  2  0
  1 18  1  0
  1 19  1  0
  1 20  1  0
  3 21  1  0
  5 22  1  0
  5 23  1  0
  5 24  1  0
  8 25  1  0
  9 26  1  0
 11 27  1  0
 16 28  1  0
 17 29  1  0
M  CHG  2  13   1  15  -1
M  END
$$$$
