
     RDKit          3D

 46 48  0  0  0  0  0  0  0  0999 V2000
   -6.9118    0.6196    0.4892 C   0  0  0  0  0  0  0  0  0  0  0  0
   -5.7930   -0.0675    1.1284 N   0  0  0  0  0  0  0  0  0  0  0  0
   -4.7998    0.8843    1.6693 C   0  0  0  0  0  0  0  0  0  0  0  0
   -3.5608    1.1469    0.7793 C   0  0  0  0  0  0  0  0  0  0  0  0
   -2.8736   -0.1089    0.4303 N   0  0  0  0  0  0  0  0  0  0  0  0
   -1.5131   -0.1381    0.1702 C   0  0  0  0  0  0  0  0  0  0  0  0
   -0.7566   -1.3079    0.3077 C   0  0  0  0  0  0  0  0  0  0  0  0
    0.6228   -1.3663    0.0471 C   0  0  0  0  0  0  0  0  0  0  0  0
    1.2774   -0.1986   -0.3786 C   0  0  0  0  0  0  0  0  0  0  0  0
    0.5655    0.9912   -0.5289 C   0  0  0  0  0  0  0  0  0  0  0  0
    1.4800    1.9729   -0.9669 C   0  0  0  0  0  0  0  0  0  0  0  0
    2.7118    1.3729   -1.0753 C   0  0  0  0  0  0  0  0  0  0  0  0
    2.6229    0.0453   -0.6975 N   0  0  0  0  0  0  0  0  0  0  0  0
    3.6424   -0.9246   -0.6477 C   0  0  0  0  0  0  0  0  0  0  0  0
    4.9844   -0.8411   -0.7736 C   0  0  0  0  0  0  0  0  0  0  0  0
    5.7683   -1.9827   -0.6811 N   0  0  0  0  0  0  0  0  0  0  0  0
    5.7317    0.4117   -0.9028 C   0  0  0  0  0  0  0  0  0  0  0  0
    6.1434    0.7590   -2.2287 C   0  0  0  0  0  0  0  0  0  0  0  0
    6.4825    1.0322   -3.3031 N   0  0  0  0  0  0  0  0  0  0  0  0
    6.0604    1.1791    0.1614 C   0  0  0  0  0  0  0  0  0  0  0  0
    5.6839    0.8117    1.4855 C   0  0  0  0  0  0  0  0  0  0  0  0
    5.3764    0.5214    2.5659 N   0  0  0  0  0  0  0  0  0  0  0  0
    6.8007    2.3854    0.0075 C   0  0  0  0  0  0  0  0  0  0  0  0
    7.3994    3.3687   -0.1343 N   0  0  0  0  0  0  0  0  0  0  0  0
   -0.8215    1.0093   -0.2557 C   0  0  0  0  0  0  0  0  0  0  0  0
   -3.6831   -1.3362    0.4997 C   0  0  0  0  0  0  0  0  0  0  0  0
   -5.1653   -1.0227    0.1894 C   0  0  0  0  0  0  0  0  0  0  0  0
   -6.5868    1.2564   -0.3413 H   0  0  0  0  0  0  0  0  0  0  0  0
   -7.6404   -0.1038    0.1058 H   0  0  0  0  0  0  0  0  0  0  0  0
   -7.4434    1.2448    1.2157 H   0  0  0  0  0  0  0  0  0  0  0  0
   -5.2701    1.8394    1.9351 H   0  0  0  0  0  0  0  0  0  0  0  0
   -4.4450    0.4611    2.6189 H   0  0  0  0  0  0  0  0  0  0  0  0
   -3.8649    1.6628   -0.1397 H   0  0  0  0  0  0  0  0  0  0  0  0
   -2.8940    1.8129    1.3404 H   0  0  0  0  0  0  0  0  0  0  0  0
   -1.2279   -2.2240    0.6561 H   0  0  0  0  0  0  0  0  0  0  0  0
    1.1499   -2.3039    0.1892 H   0  0  0  0  0  0  0  0  0  0  0  0
    1.2579    3.0069   -1.1988 H   0  0  0  0  0  0  0  0  0  0  0  0
    3.6278    1.8125   -1.4298 H   0  0  0  0  0  0  0  0  0  0  0  0
    3.2439   -1.9174   -0.4580 H   0  0  0  0  0  0  0  0  0  0  0  0
    6.5989   -1.9829   -1.2734 H   0  0  0  0  0  0  0  0  0  0  0  0
    5.2541   -2.8572   -0.7871 H   0  0  0  0  0  0  0  0  0  0  0  0
   -1.3510    1.9440   -0.4099 H   0  0  0  0  0  0  0  0  0  0  0  0
   -3.5907   -1.7882    1.4945 H   0  0  0  0  0  0  0  0  0  0  0  0
   -3.3430   -2.0688   -0.2421 H   0  0  0  0  0  0  0  0  0  0  0  0
   -5.7403   -1.9557    0.2051 H   0  0  0  0  0  0  0  0  0  0  0  0
   -5.2104   -0.6332   -0.8372 H   0  0  0  0  0  0  0  0  0  0  0  0
  1  2  1  0
  2  3  1  0
  3  4  1  0
  4  5  1  0
  5  6  1  0
  6  7  2  0
  7  8  1  0
  8  9  2  0
  9 10  1  0
 10 11  1  0
 11 12  2  0
 12 13  1  0
 13 14  1  0
 14 15  2  3
 15 16  1  0
 15 17  1  0
 17 18  1  0
 18 19  3  0
 17 20  2  3
 20 21  1  0
 21 22  3  0
 20 23  1  0
 23 24  3  0
 10 25  2  0
  5 26  1  0
 26 27  1  0
 27  2  1  0
 25  6  1  0
 13  9  1  0
  1 28  1  0
  1 29  1  0
  1 30  1  0
  3 31  1  0
  3 32  1  0
  4 33  1  0
  4 34  1  0
  7 35  1  0
  8 36  1  0
 11 37  1  0
 12 38  1  0
 14 39  1  0
 16 40  1  0
 16 41  1  0
 25 42  1  0
 26 43  1  0
 26 44  1  0
 27 45  1  0
 27 46  1  0
M  END
$$$$
