
     RDKit          3D

 25 25  0  0  0  0  0  0  0  0999 V2000
   -2.1108    3.3748    1.8204 N   0  0  0  0  0  0  0  0  0  0  0  0
   -2.0007    2.4704    1.1029 C   0  0  0  0  0  0  0  0  0  0  0  0
   -1.8688    1.3541    0.2296 C   0  0  0  0  0  0  0  0  0  0  0  0
   -1.9173    1.6130   -1.1703 C   0  0  0  0  0  0  0  0  0  0  0  0
   -1.9410    1.8296   -2.3101 N   0  0  0  0  0  0  0  0  0  0  0  0
   -1.7047    0.1001    0.7061 C   0  0  0  0  0  0  0  0  0  0  0  0
   -1.6549   -0.1637    2.1109 C   0  0  0  0  0  0  0  0  0  0  0  0
   -1.6165   -0.3913    3.2474 N   0  0  0  0  0  0  0  0  0  0  0  0
   -1.5583   -1.0706   -0.1678 C   0  0  0  0  0  0  0  0  0  0  0  0
   -2.7162   -1.7579   -0.4789 N   0  0  0  0  0  0  0  0  0  0  0  0
   -0.3663   -1.4218   -0.6929 C   0  0  0  0  0  0  0  0  0  0  0  0
    0.9082   -0.7378   -0.4468 C   0  0  0  0  0  0  0  0  0  0  0  0
    1.5889   -0.9074    0.7653 C   0  0  0  0  0  0  0  0  0  0  0  0
    2.7898   -0.2341    0.9975 C   0  0  0  0  0  0  0  0  0  0  0  0
    3.3188    0.6061    0.0180 C   0  0  0  0  0  0  0  0  0  0  0  0
    2.6466    0.7668   -1.1923 C   0  0  0  0  0  0  0  0  0  0  0  0
    3.3013    1.8025   -2.3998 Cl  0  0  0  0  0  0  0  0  0  0  0  0
    1.4457    0.0990   -1.4309 C   0  0  0  0  0  0  0  0  0  0  0  0
   -2.5566   -2.6666   -0.9127 H   0  0  0  0  0  0  0  0  0  0  0  0
   -3.3899   -1.8312    0.2825 H   0  0  0  0  0  0  0  0  0  0  0  0
   -0.2941   -2.2641   -1.3782 H   0  0  0  0  0  0  0  0  0  0  0  0
    1.1959   -1.5668    1.5375 H   0  0  0  0  0  0  0  0  0  0  0  0
    3.3146   -0.3670    1.9410 H   0  0  0  0  0  0  0  0  0  0  0  0
    4.2546    1.1280    0.2020 H   0  0  0  0  0  0  0  0  0  0  0  0
    0.9317    0.2360   -2.3805 H   0  0  0  0  0  0  0  0  0  0  0  0
  1  2  3  0
  2  3  1  0
  3  4  1  0
  4  5  3  0
  3  6  2  3
  6  7  1  0
  7  8  3  0
  6  9  1  0
  9 10  1  0
  9 11  2  3
 11 12  1  0
 12 13  2  0
 13 14  1  0
 14 15  2  0
 15 16  1  0
 16 17  1  0
 16 18  2  0
 18 12  1  0
 10 19  1  0
 10 20  1  0
 11 21  1  0
 13 22  1  0
 14 23  1  0
 15 24  1  0
 18 25  1  0
M  END
$$$$
