
     RDKit          3D

 34 35  0  0  0  0  0  0  0  0999 V2000
   -4.5007    1.0531    0.1163 C   0  0  0  0  0  0  0  0  0  0  0  0
   -4.0145   -0.2358   -0.5299 C   0  0  0  0  0  0  0  0  0  0  0  0
   -2.7179   -0.6468    0.0183 N   0  0  0  0  0  0  0  0  0  0  0  0
   -2.7451   -1.3749    1.2839 C   0  0  0  0  0  0  0  0  0  0  0  0
   -1.5605   -0.1221   -0.4808 C   0  0  0  0  0  0  0  0  0  0  0  0
   -1.3088    0.6808   -1.5738 C   0  0  0  0  0  0  0  0  0  0  0  0
    0.0866    0.9131   -1.6373 C   0  0  0  0  0  0  0  0  0  0  0  0
    0.6846    0.2426   -0.5839 C   0  0  0  0  0  0  0  0  0  0  0  0
    2.0980    0.1850   -0.1843 C   0  0  0  0  0  0  0  0  0  0  0  0
    2.8439    1.3776   -0.2393 C   0  0  0  0  0  0  0  0  0  0  0  0
    4.1991    1.3899    0.0974 C   0  0  0  0  0  0  0  0  0  0  0  0
    4.9300    2.5398    0.0529 O   0  0  0  0  0  0  0  0  0  0  0  0
    4.8542    0.2290    0.4894 C   0  0  0  0  0  0  0  0  0  0  0  0
    4.1463   -0.9673    0.5524 C   0  0  0  0  0  0  0  0  0  0  0  0
    2.7809   -0.9762    0.2214 C   0  0  0  0  0  0  0  0  0  0  0  0
    2.1059   -2.2547    0.3112 N   0  0  0  0  0  0  0  0  0  0  0  0
    2.4635   -3.1405   -0.4756 O   0  0  0  0  0  0  0  0  0  0  0  0
    1.2551   -2.3799    1.2058 O   0  0  0  0  0  0  0  0  0  0  0  0
   -0.3422   -0.3685    0.1070 N   0  0  0  0  0  0  0  0  0  0  0  0
   -3.8044    1.8782   -0.0648 H   0  0  0  0  0  0  0  0  0  0  0  0
   -4.6067    0.9365    1.1999 H   0  0  0  0  0  0  0  0  0  0  0  0
   -5.4759    1.3364   -0.2919 H   0  0  0  0  0  0  0  0  0  0  0  0
   -3.9632   -0.1138   -1.6182 H   0  0  0  0  0  0  0  0  0  0  0  0
   -4.7563   -1.0261   -0.3607 H   0  0  0  0  0  0  0  0  0  0  0  0
   -2.4589   -0.7184    2.1129 H   0  0  0  0  0  0  0  0  0  0  0  0
   -2.0651   -2.2333    1.2553 H   0  0  0  0  0  0  0  0  0  0  0  0
   -3.7438   -1.7689    1.5021 H   0  0  0  0  0  0  0  0  0  0  0  0
   -2.0473    1.0614   -2.2652 H   0  0  0  0  0  0  0  0  0  0  0  0
    0.5987    1.5025   -2.3870 H   0  0  0  0  0  0  0  0  0  0  0  0
    2.3553    2.3013   -0.5409 H   0  0  0  0  0  0  0  0  0  0  0  0
    4.3577    3.2708   -0.2351 H   0  0  0  0  0  0  0  0  0  0  0  0
    5.9111    0.2590    0.7421 H   0  0  0  0  0  0  0  0  0  0  0  0
    4.6559   -1.8801    0.8537 H   0  0  0  0  0  0  0  0  0  0  0  0
   -0.2153   -0.9495    0.9243 H   0  0  0  0  0  0  0  0  0  0  0  0
  1  2  1  0
  2  3  1  0
  3  4  1  0
  3  5  1  0
  5  6  2  0
  6  7  1  0
  7  8  2  0
  8  9  1  0
  9 10  1  0
 10 11  2  0
 11 12  1  0
 11 13  1  0
 13 14  2  0
 14 15  1  0
 15 16  1  0
 16 17  2  0
 16 18  1  0
  8 19  1  0
 19  5  1  0
 15  9  2  0
  1 20  1  0
  1 21  1  0
  1 22  1  0
  2 23  1  0
  2 24  1  0
  4 25  1  0
  4 26  1  0
  4 27  1  0
  6 28  1  0
  7 29  1  0
 10 30  1  0
 12 31  1  0
 13 32  1  0
 14 33  1  0
 19 34  1  0
M  CHG  2  16   1  18  -1
M  END
$$$$
