
     RDKit          3D

 31 33  0  0  0  0  0  0  0  0999 V2000
    2.8388   -0.3976    2.8591 N   0  0  0  0  0  0  0  0  0  0  0  0
    2.7696   -0.1656    1.4843 C   0  0  0  0  0  0  0  0  0  0  0  0
    3.9294   -0.0975    0.7212 C   0  0  0  0  0  0  0  0  0  0  0  0
    3.8575    0.0061   -0.6724 C   0  0  0  0  0  0  0  0  0  0  0  0
    2.6450    0.0056   -1.3462 C   0  0  0  0  0  0  0  0  0  0  0  0
    2.6544    0.1001   -2.6804 N   0  0  0  0  0  0  0  0  0  0  0  0
    1.4691    0.0682   -3.2995 C   0  0  0  0  0  0  0  0  0  0  0  0
    0.2763   -0.0427   -2.7097 N   0  0  0  0  0  0  0  0  0  0  0  0
    0.2856   -0.1237   -1.3606 C   0  0  0  0  0  0  0  0  0  0  0  0
   -1.0624   -0.2128   -0.7758 C   0  0  0  0  0  0  0  0  0  0  0  0
   -1.8641   -1.3432   -1.0052 C   0  0  0  0  0  0  0  0  0  0  0  0
   -3.1518   -1.4369   -0.4690 C   0  0  0  0  0  0  0  0  0  0  0  0
   -3.6696   -0.3974    0.3002 C   0  0  0  0  0  0  0  0  0  0  0  0
   -4.9377   -0.5975    0.7723 O   0  0  0  0  0  0  0  0  0  0  0  0
   -2.8889    0.7416    0.5319 C   0  0  0  0  0  0  0  0  0  0  0  0
   -3.3961    1.8504    1.3418 N   0  0  0  0  0  0  0  0  0  0  0  0
   -2.6122    2.7630    1.6366 O   0  0  0  0  0  0  0  0  0  0  0  0
   -4.5851    1.8031    1.6965 O   0  0  0  0  0  0  0  0  0  0  0  0
   -1.5934    0.8364   -0.0065 C   0  0  0  0  0  0  0  0  0  0  0  0
    1.4671   -0.1121   -0.5985 C   0  0  0  0  0  0  0  0  0  0  0  0
    1.5470   -0.2267    0.8164 C   0  0  0  0  0  0  0  0  0  0  0  0
    2.0073   -0.1291    3.3764 H   0  0  0  0  0  0  0  0  0  0  0  0
    3.6884   -0.0554    3.2985 H   0  0  0  0  0  0  0  0  0  0  0  0
    4.9061   -0.1263    1.1974 H   0  0  0  0  0  0  0  0  0  0  0  0
    4.7790    0.0737   -1.2469 H   0  0  0  0  0  0  0  0  0  0  0  0
    1.4787    0.1395   -4.3818 H   0  0  0  0  0  0  0  0  0  0  0  0
   -1.4840   -2.1613   -1.6165 H   0  0  0  0  0  0  0  0  0  0  0  0
   -3.7535   -2.3228   -0.6603 H   0  0  0  0  0  0  0  0  0  0  0  0
   -5.2525    0.2045    1.2405 H   0  0  0  0  0  0  0  0  0  0  0  0
   -0.9900    1.7294    0.1559 H   0  0  0  0  0  0  0  0  0  0  0  0
    0.6417   -0.3729    1.4003 H   0  0  0  0  0  0  0  0  0  0  0  0
  1  2  1  0
  2  3  1  0
  3  4  2  0
  4  5  1  0
  5  6  2  0
  6  7  1  0
  7  8  2  0
  8  9  1  0
  9 10  1  0
 10 11  1  0
 11 12  2  0
 12 13  1  0
 13 14  1  0
 13 15  2  0
 15 16  1  0
 16 17  2  0
 16 18  1  0
 15 19  1  0
  9 20  2  0
 20 21  1  0
 21  2  2  0
 20  5  1  0
 19 10  2  0
  1 22  1  0
  1 23  1  0
  3 24  1  0
  4 25  1  0
  7 26  1  0
 11 27  1  0
 12 28  1  0
 14 29  1  0
 19 30  1  0
 21 31  1  0
M  CHG  2  16   1  18  -1
M  END
$$$$
