
     RDKit          3D

 53 56  0  0  0  0  0  0  0  0999 V2000
   -6.1704    1.8787   -1.1694 C   0  0  0  0  0  0  0  0  0  0  0  0
   -4.9627    1.4466   -0.3474 C   0  0  0  0  0  0  0  0  0  0  0  0
   -4.5459    0.0783   -0.6961 N   0  0  0  0  0  0  0  0  0  0  0  0
   -3.1034   -0.2004   -0.5342 C   0  0  0  0  0  0  0  0  0  0  0  0
   -2.6435   -0.2412    0.9305 C   0  0  0  0  0  0  0  0  0  0  0  0
   -1.1932   -0.5021    0.9828 N   0  0  0  0  0  0  0  0  0  0  0  0
   -0.5289    0.5504    0.9716 N   0  0  0  0  0  0  0  0  0  0  0  0
    0.7586    0.1691    1.0373 N   0  0  0  0  0  0  0  0  0  0  0  0
    1.7613    1.0655    0.6349 C   0  0  0  0  0  0  0  0  0  0  0  0
    1.5396    2.4357    0.5029 C   0  0  0  0  0  0  0  0  0  0  0  0
    2.5838    3.3003    0.1524 C   0  0  0  0  0  0  0  0  0  0  0  0
    3.8773    2.8444   -0.0520 C   0  0  0  0  0  0  0  0  0  0  0  0
    4.8203    3.7282   -0.3961 N   0  0  0  0  0  0  0  0  0  0  0  0
    6.0566    3.2535   -0.5858 C   0  0  0  0  0  0  0  0  0  0  0  0
    6.4385    1.9808   -0.4574 N   0  0  0  0  0  0  0  0  0  0  0  0
    5.4759    1.1046   -0.0931 C   0  0  0  0  0  0  0  0  0  0  0  0
    5.9675   -0.2738    0.0595 C   0  0  0  0  0  0  0  0  0  0  0  0
    6.4208   -0.9968   -1.0573 C   0  0  0  0  0  0  0  0  0  0  0  0
    6.8906   -2.3059   -0.9248 C   0  0  0  0  0  0  0  0  0  0  0  0
    6.9210   -2.9097    0.3307 C   0  0  0  0  0  0  0  0  0  0  0  0
    6.4885   -2.1992    1.4479 C   0  0  0  0  0  0  0  0  0  0  0  0
    6.5303   -2.9418    2.9997 Cl  0  0  0  0  0  0  0  0  0  0  0  0
    6.0185   -0.8917    1.3203 C   0  0  0  0  0  0  0  0  0  0  0  0
    4.1365    1.4793    0.1162 C   0  0  0  0  0  0  0  0  0  0  0  0
    3.0705    0.6027    0.4624 C   0  0  0  0  0  0  0  0  0  0  0  0
   -5.3741   -0.9403   -0.1897 C   0  0  0  0  0  0  0  0  0  0  0  0
   -5.3112   -2.2205   -0.7456 C   0  0  0  0  0  0  0  0  0  0  0  0
   -6.1203   -3.2396   -0.2456 C   0  0  0  0  0  0  0  0  0  0  0  0
   -6.9842   -2.9630    0.8017 C   0  0  0  0  0  0  0  0  0  0  0  0
   -7.0007   -1.6734    1.2970 C   0  0  0  0  0  0  0  0  0  0  0  0
   -6.2226   -0.6727    0.8264 N   0  0  0  0  0  0  0  0  0  0  0  0
   -6.4219    2.9213   -0.9505 H   0  0  0  0  0  0  0  0  0  0  0  0
   -7.0530    1.2685   -0.9546 H   0  0  0  0  0  0  0  0  0  0  0  0
   -5.9605    1.7968   -2.2412 H   0  0  0  0  0  0  0  0  0  0  0  0
   -5.1547    1.5634    0.7262 H   0  0  0  0  0  0  0  0  0  0  0  0
   -4.1480    2.1422   -0.5858 H   0  0  0  0  0  0  0  0  0  0  0  0
   -2.5395    0.5746   -1.0702 H   0  0  0  0  0  0  0  0  0  0  0  0
   -2.8286   -1.1370   -1.0359 H   0  0  0  0  0  0  0  0  0  0  0  0
   -3.1480   -1.0504    1.4693 H   0  0  0  0  0  0  0  0  0  0  0  0
   -2.8953    0.6909    1.4521 H   0  0  0  0  0  0  0  0  0  0  0  0
    0.9259   -0.8118    0.8427 H   0  0  0  0  0  0  0  0  0  0  0  0
    0.5495    2.8541    0.6685 H   0  0  0  0  0  0  0  0  0  0  0  0
    2.3758    4.3626    0.0416 H   0  0  0  0  0  0  0  0  0  0  0  0
    6.8196    3.9706   -0.8691 H   0  0  0  0  0  0  0  0  0  0  0  0
    6.4134   -0.5310   -2.0418 H   0  0  0  0  0  0  0  0  0  0  0  0
    7.2379   -2.8493   -1.8000 H   0  0  0  0  0  0  0  0  0  0  0  0
    7.2895   -3.9270    0.4324 H   0  0  0  0  0  0  0  0  0  0  0  0
    5.6991   -0.3462    2.2059 H   0  0  0  0  0  0  0  0  0  0  0  0
    3.2696   -0.4591    0.5906 H   0  0  0  0  0  0  0  0  0  0  0  0
   -4.6539   -2.4224   -1.5846 H   0  0  0  0  0  0  0  0  0  0  0  0
   -6.0785   -4.2341   -0.6792 H   0  0  0  0  0  0  0  0  0  0  0  0
   -7.6318   -3.7268    1.2156 H   0  0  0  0  0  0  0  0  0  0  0  0
   -7.6614   -1.3963    2.1132 H   0  0  0  0  0  0  0  0  0  0  0  0
  1  2  1  0
  2  3  1  0
  3  4  1  0
  4  5  1  0
  5  6  1  0
  6  7  2  0
  7  8  1  0
  8  9  1  0
  9 10  1  0
 10 11  2  0
 11 12  1  0
 12 13  2  0
 13 14  1  0
 14 15  2  0
 15 16  1  0
 16 17  1  0
 17 18  2  0
 18 19  1  0
 19 20  2  0
 20 21  1  0
 21 22  1  0
 21 23  2  0
 16 24  2  0
 24 25  1  0
  3 26  1  0
 26 27  2  0
 27 28  1  0
 28 29  2  0
 29 30  1  0
 30 31  2  0
 25  9  2  0
 31 26  1  0
 24 12  1  0
 23 17  1  0
  1 32  1  0
  1 33  1  0
  1 34  1  0
  2 35  1  0
  2 36  1  0
  4 37  1  0
  4 38  1  0
  5 39  1  0
  5 40  1  0
  8 41  1  0
 10 42  1  0
 11 43  1  0
 14 44  1  0
 18 45  1  0
 19 46  1  0
 20 47  1  0
 23 48  1  0
 25 49  1  0
 27 50  1  0
 28 51  1  0
 29 52  1  0
 30 53  1  0
M  END
$$$$
