
     RDKit          3D

 44 46  0  0  0  0  0  0  0  0999 V2000
   -5.5758    2.6729   -0.3565 O   0  0  0  0  0  0  0  0  0  0  0  0
   -5.8288    1.4924   -0.2059 C   0  0  0  0  0  0  0  0  0  0  0  0
   -7.0950    1.0673   -0.0441 O   0  0  0  0  0  0  0  0  0  0  0  0
   -4.8441    0.3842   -0.1771 C   0  0  0  0  0  0  0  0  0  0  0  0
   -5.2395   -0.9447   -0.0209 C   0  0  0  0  0  0  0  0  0  0  0  0
   -4.2611   -1.9243   -0.0041 C   0  0  0  0  0  0  0  0  0  0  0  0
   -4.5799   -3.2513    0.1335 O   0  0  0  0  0  0  0  0  0  0  0  0
   -2.9025   -1.5975   -0.1376 C   0  0  0  0  0  0  0  0  0  0  0  0
   -2.0208   -2.6550   -0.1478 O   0  0  0  0  0  0  0  0  0  0  0  0
   -2.4629   -0.2672   -0.2922 C   0  0  0  0  0  0  0  0  0  0  0  0
   -1.1311    0.1006   -0.4217 N   0  0  0  0  0  0  0  0  0  0  0  0
   -0.7237    1.3772   -1.0279 C   0  0  0  0  0  0  0  0  0  0  0  0
    0.6966    1.2600   -1.6264 C   0  0  0  0  0  0  0  0  0  0  0  0
    1.7507    0.9282   -0.6408 N   0  0  0  0  0  0  0  0  0  0  0  0
    2.8819    0.2753   -1.3168 C   0  0  0  0  0  0  0  0  0  0  0  0
    4.1368    0.2203   -0.4692 C   0  0  0  0  0  0  0  0  0  0  0  0
    4.6571    1.3854    0.1163 C   0  0  0  0  0  0  0  0  0  0  0  0
    5.8237    1.3393    0.8818 C   0  0  0  0  0  0  0  0  0  0  0  0
    6.4890    0.1283    1.0665 C   0  0  0  0  0  0  0  0  0  0  0  0
    5.9832   -1.0312    0.4824 C   0  0  0  0  0  0  0  0  0  0  0  0
    6.8862   -2.6744    0.7294 Br  0  0  0  0  0  0  0  0  0  0  0  0
    4.8176   -0.9922   -0.2840 C   0  0  0  0  0  0  0  0  0  0  0  0
    1.1987    0.1098    0.4643 C   0  0  0  0  0  0  0  0  0  0  0  0
   -0.0489   -0.7399    0.1192 C   0  0  0  0  0  0  0  0  0  0  0  0
   -3.4798    0.7078   -0.3106 C   0  0  0  0  0  0  0  0  0  0  0  0
   -7.6219    1.8938   -0.0818 H   0  0  0  0  0  0  0  0  0  0  0  0
   -6.2886   -1.2002    0.0813 H   0  0  0  0  0  0  0  0  0  0  0  0
   -5.5463   -3.3277    0.2202 H   0  0  0  0  0  0  0  0  0  0  0  0
   -2.5858   -3.4469   -0.0513 H   0  0  0  0  0  0  0  0  0  0  0  0
   -0.7533    2.1745   -0.2754 H   0  0  0  0  0  0  0  0  0  0  0  0
   -1.4012    1.6526   -1.8453 H   0  0  0  0  0  0  0  0  0  0  0  0
    0.6577    0.4946   -2.4144 H   0  0  0  0  0  0  0  0  0  0  0  0
    0.9598    2.2075   -2.1106 H   0  0  0  0  0  0  0  0  0  0  0  0
    2.5991   -0.7322   -1.6496 H   0  0  0  0  0  0  0  0  0  0  0  0
    3.1503    0.8386   -2.2211 H   0  0  0  0  0  0  0  0  0  0  0  0
    4.1417    2.3350   -0.0189 H   0  0  0  0  0  0  0  0  0  0  0  0
    6.2108    2.2486    1.3343 H   0  0  0  0  0  0  0  0  0  0  0  0
    7.3959    0.0998    1.6640 H   0  0  0  0  0  0  0  0  0  0  0  0
    4.4358   -1.9047   -0.7353 H   0  0  0  0  0  0  0  0  0  0  0  0
    0.9141    0.8128    1.2589 H   0  0  0  0  0  0  0  0  0  0  0  0
    1.9598   -0.5381    0.9141 H   0  0  0  0  0  0  0  0  0  0  0  0
    0.2263   -1.5072   -0.6138 H   0  0  0  0  0  0  0  0  0  0  0  0
   -0.3646   -1.2317    1.0471 H   0  0  0  0  0  0  0  0  0  0  0  0
   -3.2170    1.7597   -0.4041 H   0  0  0  0  0  0  0  0  0  0  0  0
  1  2  2  0
  2  3  1  0
  2  4  1  0
  4  5  1  0
  5  6  2  0
  6  7  1  0
  6  8  1  0
  8  9  1  0
  8 10  2  0
 10 11  1  0
 11 12  1  0
 12 13  1  0
 13 14  1  0
 14 15  1  0
 15 16  1  0
 16 17  2  0
 17 18  1  0
 18 19  2  0
 19 20  1  0
 20 21  1  0
 20 22  2  0
 14 23  1  0
 23 24  1  0
 10 25  1  0
 25  4  2  0
 24 11  1  0
 22 16  1  0
  3 26  1  0
  5 27  1  0
  7 28  1  0
  9 29  1  0
 12 30  1  0
 12 31  1  0
 13 32  1  0
 13 33  1  0
 15 34  1  0
 15 35  1  0
 17 36  1  0
 18 37  1  0
 19 38  1  0
 22 39  1  0
 23 40  1  0
 23 41  1  0
 24 42  1  0
 24 43  1  0
 25 44  1  0
M  END
$$$$
