
     RDKit          3D

 47 49  0  0  0  0  0  0  0  0999 V2000
    6.3483    2.0660   -0.9920 C   0  0  0  0  0  0  0  0  0  0  0  0
    5.0792    1.3707   -1.4756 C   0  0  0  0  0  0  0  0  0  0  0  0
    4.8000    0.0466   -0.9046 N   0  0  0  0  0  0  0  0  0  0  0  0
    5.7548   -0.9631   -1.3640 C   0  0  0  0  0  0  0  0  0  0  0  0
    4.6802    0.0134    0.5658 C   0  0  0  0  0  0  0  0  0  0  0  0
    3.5824    0.9061    1.1749 C   0  0  0  0  0  0  0  0  0  0  0  0
    2.2684    0.5056    0.6496 N   0  0  0  0  0  0  0  0  0  0  0  0
    1.4330    0.3136    1.5539 N   0  0  0  0  0  0  0  0  0  0  0  0
    0.3161   -0.0873    0.9238 N   0  0  0  0  0  0  0  0  0  0  0  0
   -0.9116   -0.0672    1.6007 C   0  0  0  0  0  0  0  0  0  0  0  0
   -1.0070    0.0367    2.9880 C   0  0  0  0  0  0  0  0  0  0  0  0
   -2.2503   -0.0344    3.6297 C   0  0  0  0  0  0  0  0  0  0  0  0
   -3.4300   -0.2234    2.9253 C   0  0  0  0  0  0  0  0  0  0  0  0
   -4.5782   -0.2984    3.6082 N   0  0  0  0  0  0  0  0  0  0  0  0
   -5.6931   -0.5046    2.8978 C   0  0  0  0  0  0  0  0  0  0  0  0
   -5.7689   -0.6291    1.5697 N   0  0  0  0  0  0  0  0  0  0  0  0
   -4.6012   -0.5311    0.8945 C   0  0  0  0  0  0  0  0  0  0  0  0
   -4.7575   -0.6412   -0.5648 C   0  0  0  0  0  0  0  0  0  0  0  0
   -4.4935    0.4522   -1.4120 C   0  0  0  0  0  0  0  0  0  0  0  0
   -4.6459    0.3417   -2.7967 C   0  0  0  0  0  0  0  0  0  0  0  0
   -5.0714   -0.8628   -3.3553 C   0  0  0  0  0  0  0  0  0  0  0  0
   -5.3505   -1.9484   -2.5265 C   0  0  0  0  0  0  0  0  0  0  0  0
   -5.8836   -3.4336   -3.2158 Cl  0  0  0  0  0  0  0  0  0  0  0  0
   -5.1998   -1.8426   -1.1434 C   0  0  0  0  0  0  0  0  0  0  0  0
   -3.3617   -0.3402    1.5309 C   0  0  0  0  0  0  0  0  0  0  0  0
   -2.0954   -0.2801    0.8855 C   0  0  0  0  0  0  0  0  0  0  0  0
    6.4662    3.0230   -1.5143 H   0  0  0  0  0  0  0  0  0  0  0  0
    6.3097    2.2809    0.0811 H   0  0  0  0  0  0  0  0  0  0  0  0
    7.2424    1.4676   -1.1955 H   0  0  0  0  0  0  0  0  0  0  0  0
    4.2235    2.0317   -1.2923 H   0  0  0  0  0  0  0  0  0  0  0  0
    5.1266    1.2811   -2.5684 H   0  0  0  0  0  0  0  0  0  0  0  0
    5.4318   -1.9644   -1.0540 H   0  0  0  0  0  0  0  0  0  0  0  0
    6.7644   -0.7974   -0.9725 H   0  0  0  0  0  0  0  0  0  0  0  0
    5.8059   -0.9806   -2.4599 H   0  0  0  0  0  0  0  0  0  0  0  0
    4.4526   -1.0186    0.8676 H   0  0  0  0  0  0  0  0  0  0  0  0
    5.6399    0.2649    1.0335 H   0  0  0  0  0  0  0  0  0  0  0  0
    3.7558    1.9623    0.9444 H   0  0  0  0  0  0  0  0  0  0  0  0
    3.6231    0.8098    2.2689 H   0  0  0  0  0  0  0  0  0  0  0  0
    0.2992    0.0940   -0.0737 H   0  0  0  0  0  0  0  0  0  0  0  0
   -0.1136    0.1642    3.5947 H   0  0  0  0  0  0  0  0  0  0  0  0
   -2.2916    0.0493    4.7148 H   0  0  0  0  0  0  0  0  0  0  0  0
   -6.6213   -0.5778    3.4526 H   0  0  0  0  0  0  0  0  0  0  0  0
   -4.1774    1.4051   -0.9895 H   0  0  0  0  0  0  0  0  0  0  0  0
   -4.4413    1.1962   -3.4360 H   0  0  0  0  0  0  0  0  0  0  0  0
   -5.1920   -0.9470   -4.4319 H   0  0  0  0  0  0  0  0  0  0  0  0
   -5.4303   -2.6942   -0.5062 H   0  0  0  0  0  0  0  0  0  0  0  0
   -2.0362   -0.4150   -0.1923 H   0  0  0  0  0  0  0  0  0  0  0  0
  1  2  1  0
  2  3  1  0
  3  4  1  0
  3  5  1  0
  5  6  1  0
  6  7  1  0
  7  8  2  0
  8  9  1  0
  9 10  1  0
 10 11  1  0
 11 12  2  0
 12 13  1  0
 13 14  2  0
 14 15  1  0
 15 16  2  0
 16 17  1  0
 17 18  1  0
 18 19  2  0
 19 20  1  0
 20 21  2  0
 21 22  1  0
 22 23  1  0
 22 24  2  0
 17 25  2  0
 25 26  1  0
 26 10  2  0
 25 13  1  0
 24 18  1  0
  1 27  1  0
  1 28  1  0
  1 29  1  0
  2 30  1  0
  2 31  1  0
  4 32  1  0
  4 33  1  0
  4 34  1  0
  5 35  1  0
  5 36  1  0
  6 37  1  0
  6 38  1  0
  9 39  1  0
 11 40  1  0
 12 41  1  0
 15 42  1  0
 19 43  1  0
 20 44  1  0
 21 45  1  0
 24 46  1  0
 26 47  1  0
M  END
$$$$
