
     RDKit          3D

 42 44  0  0  0  0  0  0  0  0999 V2000
   -3.8480   -3.5953    0.8542 C   0  0  0  0  0  0  0  0  0  0  0  0
   -3.2695   -2.5028    0.0037 C   0  0  0  0  0  0  0  0  0  0  0  0
   -4.0306   -1.9017   -1.0012 C   0  0  0  0  0  0  0  0  0  0  0  0
   -3.4830   -0.8835   -1.7765 C   0  0  0  0  0  0  0  0  0  0  0  0
   -2.1774   -0.4453   -1.5388 C   0  0  0  0  0  0  0  0  0  0  0  0
   -1.3945   -1.0066   -0.5143 C   0  0  0  0  0  0  0  0  0  0  0  0
   -0.0574   -0.5439   -0.2382 N   0  0  0  0  0  0  0  0  0  0  0  0
    0.9264   -1.4260    0.2655 C   0  0  0  0  0  0  0  0  0  0  0  0
    0.8656   -2.6554    0.1753 O   0  0  0  0  0  0  0  0  0  0  0  0
    2.0667   -0.8579    1.0582 C   0  0  0  0  0  0  0  0  0  0  0  0
    1.8341    0.0772    2.0640 C   0  0  0  0  0  0  0  0  0  0  0  0
    2.9193    0.5359    2.8056 C   0  0  0  0  0  0  0  0  0  0  0  0
    4.1888    0.0361    2.5361 C   0  0  0  0  0  0  0  0  0  0  0  0
    4.3256   -0.9105    1.5335 C   0  0  0  0  0  0  0  0  0  0  0  0
    3.2979   -1.3718    0.7911 N   0  0  0  0  0  0  0  0  0  0  0  0
    0.2638    0.7785   -0.5776 C   0  0  0  0  0  0  0  0  0  0  0  0
   -0.6072    1.8106   -0.2922 N   0  0  0  0  0  0  0  0  0  0  0  0
   -0.0534    3.0180   -0.6263 C   0  0  0  0  0  0  0  0  0  0  0  0
   -0.7685    4.2963   -0.3972 C   0  0  0  0  0  0  0  0  0  0  0  0
    1.1799    2.7574   -1.1798 C   0  0  0  0  0  0  0  0  0  0  0  0
    1.3850    1.3455   -1.1723 C   0  0  0  0  0  0  0  0  0  0  0  0
    2.5712    0.6695   -1.7681 C   0  0  0  0  0  0  0  0  0  0  0  0
   -1.9624   -2.0454    0.2421 C   0  0  0  0  0  0  0  0  0  0  0  0
   -3.1000   -4.3716    1.0458 H   0  0  0  0  0  0  0  0  0  0  0  0
   -4.6965   -4.0771    0.3572 H   0  0  0  0  0  0  0  0  0  0  0  0
   -4.1902   -3.1845    1.8089 H   0  0  0  0  0  0  0  0  0  0  0  0
   -5.0470   -2.2350   -1.1976 H   0  0  0  0  0  0  0  0  0  0  0  0
   -4.0658   -0.4391   -2.5793 H   0  0  0  0  0  0  0  0  0  0  0  0
   -1.7695    0.3149   -2.2013 H   0  0  0  0  0  0  0  0  0  0  0  0
    0.8343    0.4385    2.2752 H   0  0  0  0  0  0  0  0  0  0  0  0
    2.7745    1.2716    3.5918 H   0  0  0  0  0  0  0  0  0  0  0  0
    5.0529    0.3706    3.1000 H   0  0  0  0  0  0  0  0  0  0  0  0
    5.2959   -1.3370    1.2948 H   0  0  0  0  0  0  0  0  0  0  0  0
   -1.5110    1.6830    0.1430 H   0  0  0  0  0  0  0  0  0  0  0  0
   -0.1258    5.1523   -0.6267 H   0  0  0  0  0  0  0  0  0  0  0  0
   -1.0840    4.3809    0.6478 H   0  0  0  0  0  0  0  0  0  0  0  0
   -1.6569    4.3571   -1.0340 H   0  0  0  0  0  0  0  0  0  0  0  0
    1.8630    3.5012   -1.5723 H   0  0  0  0  0  0  0  0  0  0  0  0
    2.8198    1.1247   -2.7330 H   0  0  0  0  0  0  0  0  0  0  0  0
    2.3876   -0.3930   -1.9504 H   0  0  0  0  0  0  0  0  0  0  0  0
    3.4413    0.7757   -1.1139 H   0  0  0  0  0  0  0  0  0  0  0  0
   -1.3950   -2.5121    1.0451 H   0  0  0  0  0  0  0  0  0  0  0  0
  1  2  1  0
  2  3  2  0
  3  4  1  0
  4  5  2  0
  5  6  1  0
  6  7  1  0
  7  8  1  0
  8  9  2  0
  8 10  1  0
 10 11  2  0
 11 12  1  0
 12 13  2  0
 13 14  1  0
 14 15  2  0
  7 16  1  0
 16 17  1  0
 17 18  1  0
 18 19  1  0
 18 20  2  0
 20 21  1  0
 21 22  1  0
  6 23  2  0
 23  2  1  0
 15 10  1  0
 21 16  2  0
  1 24  1  0
  1 25  1  0
  1 26  1  0
  3 27  1  0
  4 28  1  0
  5 29  1  0
 11 30  1  0
 12 31  1  0
 13 32  1  0
 14 33  1  0
 17 34  1  0
 19 35  1  0
 19 36  1  0
 19 37  1  0
 20 38  1  0
 22 39  1  0
 22 40  1  0
 22 41  1  0
 23 42  1  0
M  END
$$$$
