
     RDKit          3D

 40 42  0  0  0  0  0  0  0  0999 V2000
   -2.9269    1.6977   -1.1766 C   0  0  0  0  0  0  0  0  0  0  0  0
   -1.8380    0.8447   -0.6944 N   0  0  0  0  0  0  0  0  0  0  0  0
   -2.0539   -0.4859   -0.2792 C   0  0  0  0  0  0  0  0  0  0  0  0
   -1.1682   -1.3076   -0.0328 O   0  0  0  0  0  0  0  0  0  0  0  0
   -3.4459   -0.9552   -0.1012 C   0  0  0  0  0  0  0  0  0  0  0  0
   -3.8926   -2.0484   -0.8494 C   0  0  0  0  0  0  0  0  0  0  0  0
   -5.1959   -2.5145   -0.6768 C   0  0  0  0  0  0  0  0  0  0  0  0
   -6.0404   -1.8997    0.2499 C   0  0  0  0  0  0  0  0  0  0  0  0
   -5.5836   -0.8241    1.0142 C   0  0  0  0  0  0  0  0  0  0  0  0
   -4.2814   -0.3528    0.8464 C   0  0  0  0  0  0  0  0  0  0  0  0
   -0.5264    1.3463   -0.6423 C   0  0  0  0  0  0  0  0  0  0  0  0
   -0.0350    2.6007   -0.9400 C   0  0  0  0  0  0  0  0  0  0  0  0
    1.3651    2.5825   -0.7166 C   0  0  0  0  0  0  0  0  0  0  0  0
    1.7220    1.3142   -0.2900 C   0  0  0  0  0  0  0  0  0  0  0  0
    3.0272    0.7585    0.0747 C   0  0  0  0  0  0  0  0  0  0  0  0
    4.0296    1.5930    0.5989 C   0  0  0  0  0  0  0  0  0  0  0  0
    5.2880    1.0889    0.9552 C   0  0  0  0  0  0  0  0  0  0  0  0
    5.5644   -0.2638    0.7839 C   0  0  0  0  0  0  0  0  0  0  0  0
    6.7778   -0.7642    1.1518 O   0  0  0  0  0  0  0  0  0  0  0  0
    4.5763   -1.0909    0.2538 C   0  0  0  0  0  0  0  0  0  0  0  0
    4.8432   -2.4969    0.0443 N   0  0  0  0  0  0  0  0  0  0  0  0
    5.6744   -2.7974   -0.8239 O   0  0  0  0  0  0  0  0  0  0  0  0
    4.1749   -3.2986    0.7126 O   0  0  0  0  0  0  0  0  0  0  0  0
    3.3109   -0.6016   -0.0969 C   0  0  0  0  0  0  0  0  0  0  0  0
    0.5514    0.5896   -0.2419 N   0  0  0  0  0  0  0  0  0  0  0  0
   -3.7716    1.1090   -1.5417 H   0  0  0  0  0  0  0  0  0  0  0  0
   -2.5791    2.3124   -2.0126 H   0  0  0  0  0  0  0  0  0  0  0  0
   -3.2554    2.3434   -0.3569 H   0  0  0  0  0  0  0  0  0  0  0  0
   -3.2273   -2.5363   -1.5577 H   0  0  0  0  0  0  0  0  0  0  0  0
   -5.5506   -3.3630   -1.2569 H   0  0  0  0  0  0  0  0  0  0  0  0
   -7.0539   -2.2700    0.3867 H   0  0  0  0  0  0  0  0  0  0  0  0
   -6.2400   -0.3625    1.7479 H   0  0  0  0  0  0  0  0  0  0  0  0
   -3.9189    0.4682    1.4596 H   0  0  0  0  0  0  0  0  0  0  0  0
   -0.6099    3.4504   -1.2818 H   0  0  0  0  0  0  0  0  0  0  0  0
    2.0428    3.4128   -0.8682 H   0  0  0  0  0  0  0  0  0  0  0  0
    3.8325    2.6529    0.7512 H   0  0  0  0  0  0  0  0  0  0  0  0
    6.0275    1.7688    1.3688 H   0  0  0  0  0  0  0  0  0  0  0  0
    7.3585   -0.0419    1.4460 H   0  0  0  0  0  0  0  0  0  0  0  0
    2.5701   -1.2794   -0.5155 H   0  0  0  0  0  0  0  0  0  0  0  0
    0.4583   -0.3792    0.0441 H   0  0  0  0  0  0  0  0  0  0  0  0
  1  2  1  0
  2  3  1  0
  3  4  2  0
  3  5  1  0
  5  6  2  0
  6  7  1  0
  7  8  2  0
  8  9  1  0
  9 10  2  0
  2 11  1  0
 11 12  2  0
 12 13  1  0
 13 14  2  0
 14 15  1  0
 15 16  1  0
 16 17  2  0
 17 18  1  0
 18 19  1  0
 18 20  2  0
 20 21  1  0
 21 22  2  0
 21 23  1  0
 20 24  1  0
 14 25  1  0
 10  5  1  0
 25 11  1  0
 24 15  2  0
  1 26  1  0
  1 27  1  0
  1 28  1  0
  6 29  1  0
  7 30  1  0
  8 31  1  0
  9 32  1  0
 10 33  1  0
 12 34  1  0
 13 35  1  0
 16 36  1  0
 17 37  1  0
 19 38  1  0
 24 39  1  0
 25 40  1  0
M  CHG  2  21   1  23  -1
M  END
$$$$
