
     RDKit          3D

 31 32  0  0  0  0  0  0  0  0999 V2000
   -3.0597    2.1334   -2.3137 N   0  0  0  0  0  0  0  0  0  0  0  0
   -2.4912    2.1673   -1.3023 C   0  0  0  0  0  0  0  0  0  0  0  0
   -1.7528    2.2130   -0.0844 C   0  0  0  0  0  0  0  0  0  0  0  0
   -1.4347    3.4849    0.4670 C   0  0  0  0  0  0  0  0  0  0  0  0
   -1.1464    4.4921    0.9639 N   0  0  0  0  0  0  0  0  0  0  0  0
   -1.3217    1.1048    0.5531 C   0  0  0  0  0  0  0  0  0  0  0  0
   -1.6656   -0.2665    0.1788 C   0  0  0  0  0  0  0  0  0  0  0  0
   -3.0014   -0.4511    0.0411 N   0  0  0  0  0  0  0  0  0  0  0  0
   -3.4513   -1.7081   -0.1288 C   0  0  0  0  0  0  0  0  0  0  0  0
   -2.6951   -2.8066   -0.1294 N   0  0  0  0  0  0  0  0  0  0  0  0
   -1.3937   -2.5553    0.0035 C   0  0  0  0  0  0  0  0  0  0  0  0
   -0.7817   -1.3140    0.1152 C   0  0  0  0  0  0  0  0  0  0  0  0
    0.6696   -1.5761    0.1998 C   0  0  0  0  0  0  0  0  0  0  0  0
    1.7616   -0.7898    0.0643 C   0  0  0  0  0  0  0  0  0  0  0  0
    3.0955   -1.3347    0.0954 C   0  0  0  0  0  0  0  0  0  0  0  0
    4.2093   -1.6569    0.0805 N   0  0  0  0  0  0  0  0  0  0  0  0
    1.7265    0.6454   -0.3007 C   0  0  0  0  0  0  0  0  0  0  0  0
    1.1675    0.9082   -1.5560 N   0  0  0  0  0  0  0  0  0  0  0  0
    2.2484    1.6002    0.5204 C   0  0  0  0  0  0  0  0  0  0  0  0
    2.3071    2.9585    0.0990 C   0  0  0  0  0  0  0  0  0  0  0  0
    2.3408    4.0412   -0.3146 N   0  0  0  0  0  0  0  0  0  0  0  0
    2.7160    1.3055    1.8337 C   0  0  0  0  0  0  0  0  0  0  0  0
    3.0362    1.0333    2.9141 N   0  0  0  0  0  0  0  0  0  0  0  0
    0.8051   -3.0819    0.2986 C   0  0  0  0  0  0  0  0  0  0  0  0
    1.8112   -3.7324    0.4824 O   0  0  0  0  0  0  0  0  0  0  0  0
   -0.4624   -3.5712    0.1112 N   0  0  0  0  0  0  0  0  0  0  0  0
   -0.7420    1.1889    1.4695 H   0  0  0  0  0  0  0  0  0  0  0  0
   -4.5212   -1.8365   -0.2582 H   0  0  0  0  0  0  0  0  0  0  0  0
    1.4390    1.7994   -1.9825 H   0  0  0  0  0  0  0  0  0  0  0  0
    1.2909    0.1554   -2.2383 H   0  0  0  0  0  0  0  0  0  0  0  0
   -0.7041   -4.5505    0.1174 H   0  0  0  0  0  0  0  0  0  0  0  0
  1  2  3  0
  2  3  1  0
  3  4  1  0
  4  5  3  0
  3  6  2  3
  6  7  1  0
  7  8  1  0
  8  9  2  0
  9 10  1  0
 10 11  2  0
 11 12  1  0
 12 13  1  0
 13 14  2  3
 14 15  1  0
 15 16  3  0
 14 17  1  0
 17 18  1  0
 17 19  2  3
 19 20  1  0
 20 21  3  0
 19 22  1  0
 22 23  3  0
 13 24  1  0
 24 25  2  0
 24 26  1  0
 12  7  2  0
 26 11  1  0
  6 27  1  0
  9 28  1  0
 18 29  1  0
 18 30  1  0
 26 31  1  0
M  END
$$$$
