
     RDKit          3D

 40 42  0  0  0  0  0  0  0  0999 V2000
   -1.0215   -2.9688   -2.6968 C   0  0  0  0  0  0  0  0  0  0  0  0
   -1.2242   -2.0213   -1.5753 C   0  0  0  0  0  0  0  0  0  0  0  0
   -2.1212   -2.0321   -0.5320 C   0  0  0  0  0  0  0  0  0  0  0  0
   -1.8868   -0.8759    0.2694 C   0  0  0  0  0  0  0  0  0  0  0  0
   -2.6238   -0.5602    1.5237 C   0  0  0  0  0  0  0  0  0  0  0  0
   -0.8388   -0.1751   -0.3209 C   0  0  0  0  0  0  0  0  0  0  0  0
   -0.1951    1.0250    0.0344 N   0  0  0  0  0  0  0  0  0  0  0  0
    1.1741    1.2042   -0.2289 C   0  0  0  0  0  0  0  0  0  0  0  0
    1.7072    2.2770   -0.5193 O   0  0  0  0  0  0  0  0  0  0  0  0
    2.0946    0.0320   -0.1196 C   0  0  0  0  0  0  0  0  0  0  0  0
    3.1698   -0.0603   -1.0163 C   0  0  0  0  0  0  0  0  0  0  0  0
    4.0642   -1.1301   -0.9356 C   0  0  0  0  0  0  0  0  0  0  0  0
    3.8853   -2.0956    0.0505 C   0  0  0  0  0  0  0  0  0  0  0  0
    4.7331   -3.1563    0.1668 O   0  0  0  0  0  0  0  0  0  0  0  0
    2.8360   -2.0049    0.9591 C   0  0  0  0  0  0  0  0  0  0  0  0
    1.9431   -0.9344    0.8835 C   0  0  0  0  0  0  0  0  0  0  0  0
   -1.0304    2.1438    0.3837 C   0  0  0  0  0  0  0  0  0  0  0  0
   -0.4853    3.2629    1.0195 C   0  0  0  0  0  0  0  0  0  0  0  0
   -1.2994    4.3483    1.3488 C   0  0  0  0  0  0  0  0  0  0  0  0
   -2.6490    4.3042    1.0410 C   0  0  0  0  0  0  0  0  0  0  0  0
   -3.1276    3.1684    0.4204 C   0  0  0  0  0  0  0  0  0  0  0  0
   -2.3584    2.1052    0.0987 N   0  0  0  0  0  0  0  0  0  0  0  0
   -0.4593   -0.8925   -1.4370 N   0  0  0  0  0  0  0  0  0  0  0  0
   -1.1982   -2.4723   -3.6563 H   0  0  0  0  0  0  0  0  0  0  0  0
   -1.7081   -3.8181   -2.6225 H   0  0  0  0  0  0  0  0  0  0  0  0
    0.0015   -3.3586   -2.6911 H   0  0  0  0  0  0  0  0  0  0  0  0
   -2.8681   -2.7955   -0.3521 H   0  0  0  0  0  0  0  0  0  0  0  0
   -3.5632   -0.0463    1.2992 H   0  0  0  0  0  0  0  0  0  0  0  0
   -2.8665   -1.4808    2.0657 H   0  0  0  0  0  0  0  0  0  0  0  0
   -2.0284    0.0640    2.1967 H   0  0  0  0  0  0  0  0  0  0  0  0
    3.3145    0.7064   -1.7754 H   0  0  0  0  0  0  0  0  0  0  0  0
    4.8892   -1.1877   -1.6388 H   0  0  0  0  0  0  0  0  0  0  0  0
    5.4273   -3.0794   -0.5082 H   0  0  0  0  0  0  0  0  0  0  0  0
    2.7160   -2.7631    1.7283 H   0  0  0  0  0  0  0  0  0  0  0  0
    1.1371   -0.8657    1.6099 H   0  0  0  0  0  0  0  0  0  0  0  0
    0.5663    3.3111    1.2822 H   0  0  0  0  0  0  0  0  0  0  0  0
   -0.8734    5.2186    1.8398 H   0  0  0  0  0  0  0  0  0  0  0  0
   -3.3090    5.1305    1.2778 H   0  0  0  0  0  0  0  0  0  0  0  0
   -4.1764    3.0736    0.1544 H   0  0  0  0  0  0  0  0  0  0  0  0
    0.2527   -0.6003   -2.0907 H   0  0  0  0  0  0  0  0  0  0  0  0
  1  2  1  0
  2  3  2  0
  3  4  1  0
  4  5  1  0
  4  6  2  0
  6  7  1  0
  7  8  1  0
  8  9  2  0
  8 10  1  0
 10 11  1  0
 11 12  2  0
 12 13  1  0
 13 14  1  0
 13 15  2  0
 15 16  1  0
  7 17  1  0
 17 18  2  0
 18 19  1  0
 19 20  2  0
 20 21  1  0
 21 22  2  0
  6 23  1  0
 23  2  1  0
 16 10  2  0
 22 17  1  0
  1 24  1  0
  1 25  1  0
  1 26  1  0
  3 27  1  0
  5 28  1  0
  5 29  1  0
  5 30  1  0
 11 31  1  0
 12 32  1  0
 14 33  1  0
 15 34  1  0
 16 35  1  0
 18 36  1  0
 19 37  1  0
 20 38  1  0
 21 39  1  0
 23 40  1  0
M  END
$$$$
