
     RDKit          3D

 36 38  0  0  0  0  0  0  0  0999 V2000
   -4.4287   -1.6863   -2.1631 C   0  0  0  0  0  0  0  0  0  0  0  0
   -3.9105   -1.3478   -0.7967 C   0  0  0  0  0  0  0  0  0  0  0  0
   -4.6568   -1.6652    0.3426 C   0  0  0  0  0  0  0  0  0  0  0  0
   -4.1629   -1.3677    1.6117 C   0  0  0  0  0  0  0  0  0  0  0  0
   -2.9127   -0.7624    1.7527 C   0  0  0  0  0  0  0  0  0  0  0  0
   -2.1367   -0.4548    0.6285 C   0  0  0  0  0  0  0  0  0  0  0  0
   -0.8216    0.1683    0.7882 C   0  0  0  0  0  0  0  0  0  0  0  0
   -0.3617    1.0821    1.7188 C   0  0  0  0  0  0  0  0  0  0  0  0
    1.0087    1.3620    1.4484 C   0  0  0  0  0  0  0  0  0  0  0  0
    1.8669    2.3107    2.2072 C   0  0  0  0  0  0  0  0  0  0  0  0
    1.3674    0.5931    0.3500 C   0  0  0  0  0  0  0  0  0  0  0  0
    2.6395    0.4512   -0.3548 C   0  0  0  0  0  0  0  0  0  0  0  0
    2.7067    0.6276   -1.7429 C   0  0  0  0  0  0  0  0  0  0  0  0
    3.9218    0.4847   -2.4172 C   0  0  0  0  0  0  0  0  0  0  0  0
    5.0786    0.1626   -1.7096 C   0  0  0  0  0  0  0  0  0  0  0  0
    5.0222   -0.0148   -0.3284 C   0  0  0  0  0  0  0  0  0  0  0  0
    3.8076    0.1296    0.3460 C   0  0  0  0  0  0  0  0  0  0  0  0
    0.2498   -0.1180   -0.0261 N   0  0  0  0  0  0  0  0  0  0  0  0
   -2.6477   -0.7544   -0.6437 C   0  0  0  0  0  0  0  0  0  0  0  0
   -4.0791   -0.9596   -2.9040 H   0  0  0  0  0  0  0  0  0  0  0  0
   -4.0869   -2.6838   -2.4560 H   0  0  0  0  0  0  0  0  0  0  0  0
   -5.5234   -1.6678   -2.1825 H   0  0  0  0  0  0  0  0  0  0  0  0
   -5.6298   -2.1420    0.2486 H   0  0  0  0  0  0  0  0  0  0  0  0
   -4.7491   -1.6104    2.4940 H   0  0  0  0  0  0  0  0  0  0  0  0
   -2.5419   -0.5476    2.7519 H   0  0  0  0  0  0  0  0  0  0  0  0
   -0.9563    1.5199    2.5109 H   0  0  0  0  0  0  0  0  0  0  0  0
    2.5283    1.7652    2.8876 H   0  0  0  0  0  0  0  0  0  0  0  0
    2.4812    2.9118    1.5292 H   0  0  0  0  0  0  0  0  0  0  0  0
    1.2589    2.9987    2.8037 H   0  0  0  0  0  0  0  0  0  0  0  0
    1.8170    0.8967   -2.3068 H   0  0  0  0  0  0  0  0  0  0  0  0
    3.9656    0.6305   -3.4933 H   0  0  0  0  0  0  0  0  0  0  0  0
    6.0243    0.0524   -2.2338 H   0  0  0  0  0  0  0  0  0  0  0  0
    5.9226   -0.2669    0.2255 H   0  0  0  0  0  0  0  0  0  0  0  0
    3.7759   -0.0218    1.4223 H   0  0  0  0  0  0  0  0  0  0  0  0
    0.2351   -0.7941   -0.7760 H   0  0  0  0  0  0  0  0  0  0  0  0
   -2.0725   -0.5061   -1.5325 H   0  0  0  0  0  0  0  0  0  0  0  0
  1  2  1  0
  2  3  2  0
  3  4  1  0
  4  5  2  0
  5  6  1  0
  6  7  1  0
  7  8  2  0
  8  9  1  0
  9 10  1  0
  9 11  2  0
 11 12  1  0
 12 13  2  0
 13 14  1  0
 14 15  2  0
 15 16  1  0
 16 17  2  0
 11 18  1  0
  6 19  2  0
 19  2  1  0
 18  7  1  0
 17 12  1  0
  1 20  1  0
  1 21  1  0
  1 22  1  0
  3 23  1  0
  4 24  1  0
  5 25  1  0
  8 26  1  0
 10 27  1  0
 10 28  1  0
 10 29  1  0
 13 30  1  0
 14 31  1  0
 15 32  1  0
 16 33  1  0
 17 34  1  0
 18 35  1  0
 19 36  1  0
M  END
$$$$
