
     RDKit          3D

 36 38  0  0  0  0  0  0  0  0999 V2000
    5.3135    2.7614   -0.2290 O   0  0  0  0  0  0  0  0  0  0  0  0
    4.4031    2.2492   -0.8941 N   0  0  0  0  0  0  0  0  0  0  0  0
    3.7601    2.8162   -1.7907 O   0  0  0  0  0  0  0  0  0  0  0  0
    3.9938    0.9018   -0.5538 C   0  0  0  0  0  0  0  0  0  0  0  0
    2.6610    0.7000   -0.1692 C   0  0  0  0  0  0  0  0  0  0  0  0
    2.2300   -0.5853    0.1756 C   0  0  0  0  0  0  0  0  0  0  0  0
    0.8468   -0.8325    0.5810 C   0  0  0  0  0  0  0  0  0  0  0  0
    0.3220   -1.7182    1.5057 C   0  0  0  0  0  0  0  0  0  0  0  0
   -1.0872   -1.5729    1.5039 C   0  0  0  0  0  0  0  0  0  0  0  0
   -1.4140   -0.5997    0.5836 C   0  0  0  0  0  0  0  0  0  0  0  0
   -2.6136   -0.0955    0.1888 N   0  0  0  0  0  0  0  0  0  0  0  0
   -3.8711   -0.6872    0.6767 C   0  0  0  0  0  0  0  0  0  0  0  0
   -5.0312   -0.2931   -0.2517 C   0  0  0  0  0  0  0  0  0  0  0  0
   -5.2417    1.1229   -0.3583 O   0  0  0  0  0  0  0  0  0  0  0  0
   -4.0576    1.8915   -0.1055 C   0  0  0  0  0  0  0  0  0  0  0  0
   -2.7555    1.1861   -0.5215 C   0  0  0  0  0  0  0  0  0  0  0  0
   -0.2326   -0.1784    0.0232 N   0  0  0  0  0  0  0  0  0  0  0  0
    3.1548   -1.6413    0.1323 C   0  0  0  0  0  0  0  0  0  0  0  0
    4.4826   -1.4299   -0.2631 C   0  0  0  0  0  0  0  0  0  0  0  0
    4.9056   -0.1509   -0.6142 C   0  0  0  0  0  0  0  0  0  0  0  0
    6.1864    0.0493   -1.0353 O   0  0  0  0  0  0  0  0  0  0  0  0
    1.9797    1.5462   -0.1213 H   0  0  0  0  0  0  0  0  0  0  0  0
    0.8914   -2.3966    2.1277 H   0  0  0  0  0  0  0  0  0  0  0  0
   -1.7843   -2.1215    2.1219 H   0  0  0  0  0  0  0  0  0  0  0  0
   -3.8040   -1.7809    0.7027 H   0  0  0  0  0  0  0  0  0  0  0  0
   -4.0656   -0.3253    1.6934 H   0  0  0  0  0  0  0  0  0  0  0  0
   -5.9661   -0.7377    0.1038 H   0  0  0  0  0  0  0  0  0  0  0  0
   -4.8519   -0.6749   -1.2637 H   0  0  0  0  0  0  0  0  0  0  0  0
   -4.0367    2.1278    0.9651 H   0  0  0  0  0  0  0  0  0  0  0  0
   -4.1600    2.8385   -0.6451 H   0  0  0  0  0  0  0  0  0  0  0  0
   -2.7692    0.9851   -1.5989 H   0  0  0  0  0  0  0  0  0  0  0  0
   -1.9185    1.8597   -0.3052 H   0  0  0  0  0  0  0  0  0  0  0  0
   -0.1708    0.4867   -0.7309 H   0  0  0  0  0  0  0  0  0  0  0  0
    2.8408   -2.6514    0.3911 H   0  0  0  0  0  0  0  0  0  0  0  0
    5.1601   -2.2785   -0.2989 H   0  0  0  0  0  0  0  0  0  0  0  0
    6.6999   -0.7708   -0.9392 H   0  0  0  0  0  0  0  0  0  0  0  0
  1  2  2  0
  2  3  1  0
  2  4  1  0
  4  5  1  0
  5  6  2  0
  6  7  1  0
  7  8  2  0
  8  9  1  0
  9 10  2  0
 10 11  1  0
 11 12  1  0
 12 13  1  0
 13 14  1  0
 14 15  1  0
 15 16  1  0
 10 17  1  0
  6 18  1  0
 18 19  2  0
 19 20  1  0
 20 21  1  0
 20  4  2  0
 17  7  1  0
 16 11  1  0
  5 22  1  0
  8 23  1  0
  9 24  1  0
 12 25  1  0
 12 26  1  0
 13 27  1  0
 13 28  1  0
 15 29  1  0
 15 30  1  0
 16 31  1  0
 16 32  1  0
 17 33  1  0
 18 34  1  0
 19 35  1  0
 21 36  1  0
M  CHG  2   2   1   3  -1
M  END
$$$$
