
     RDKit          3D

 39 41  0  0  0  0  0  0  0  0999 V2000
    1.9063    1.0443   -2.0095 C   0  0  0  0  0  0  0  0  0  0  0  0
    1.8109    0.1796   -0.8273 N   0  0  0  0  0  0  0  0  0  0  0  0
    3.0399   -0.3351   -0.3316 C   0  0  0  0  0  0  0  0  0  0  0  0
    4.2873    0.2535   -0.6005 C   0  0  0  0  0  0  0  0  0  0  0  0
    5.4743   -0.2954   -0.1009 C   0  0  0  0  0  0  0  0  0  0  0  0
    5.4318   -1.4457    0.6729 C   0  0  0  0  0  0  0  0  0  0  0  0
    6.6109   -1.9457    1.1386 O   0  0  0  0  0  0  0  0  0  0  0  0
    4.2208   -2.0596    0.9569 C   0  0  0  0  0  0  0  0  0  0  0  0
    3.0386   -1.5052    0.4551 C   0  0  0  0  0  0  0  0  0  0  0  0
    0.7142    0.3146   -0.0179 C   0  0  0  0  0  0  0  0  0  0  0  0
    0.5764    0.4258    1.3515 C   0  0  0  0  0  0  0  0  0  0  0  0
   -0.8053    0.5241    1.6469 C   0  0  0  0  0  0  0  0  0  0  0  0
   -1.5006    0.4543    0.4534 C   0  0  0  0  0  0  0  0  0  0  0  0
   -2.9366    0.4899    0.1771 C   0  0  0  0  0  0  0  0  0  0  0  0
   -3.4259    1.4099   -0.7627 C   0  0  0  0  0  0  0  0  0  0  0  0
   -4.7927    1.4900   -1.0361 C   0  0  0  0  0  0  0  0  0  0  0  0
   -5.1948    2.4080   -1.9606 O   0  0  0  0  0  0  0  0  0  0  0  0
   -5.7101    0.6677   -0.3883 C   0  0  0  0  0  0  0  0  0  0  0  0
   -5.2506   -0.2562    0.5484 C   0  0  0  0  0  0  0  0  0  0  0  0
   -3.8746   -0.3350    0.8157 C   0  0  0  0  0  0  0  0  0  0  0  0
   -3.4466   -1.3446    1.7599 N   0  0  0  0  0  0  0  0  0  0  0  0
   -3.6619   -1.1163    2.9582 O   0  0  0  0  0  0  0  0  0  0  0  0
   -2.9550   -2.3809    1.2936 O   0  0  0  0  0  0  0  0  0  0  0  0
   -0.5557    0.3252   -0.5426 N   0  0  0  0  0  0  0  0  0  0  0  0
    2.6016    0.6326   -2.7510 H   0  0  0  0  0  0  0  0  0  0  0  0
    0.9453    1.1392   -2.5273 H   0  0  0  0  0  0  0  0  0  0  0  0
    2.2323    2.0532   -1.7308 H   0  0  0  0  0  0  0  0  0  0  0  0
    4.3641    1.1662   -1.1828 H   0  0  0  0  0  0  0  0  0  0  0  0
    6.4270    0.1806   -0.3137 H   0  0  0  0  0  0  0  0  0  0  0  0
    6.4201   -2.7382    1.6668 H   0  0  0  0  0  0  0  0  0  0  0  0
    4.1679   -2.9626    1.5558 H   0  0  0  0  0  0  0  0  0  0  0  0
    2.0968   -2.0073    0.6685 H   0  0  0  0  0  0  0  0  0  0  0  0
    1.3894    0.4480    2.0654 H   0  0  0  0  0  0  0  0  0  0  0  0
   -1.2379    0.6341    2.6340 H   0  0  0  0  0  0  0  0  0  0  0  0
   -2.7501    2.0906   -1.2765 H   0  0  0  0  0  0  0  0  0  0  0  0
   -6.1638    2.3857   -2.0330 H   0  0  0  0  0  0  0  0  0  0  0  0
   -6.7734    0.7311   -0.6002 H   0  0  0  0  0  0  0  0  0  0  0  0
   -5.9546   -0.9102    1.0586 H   0  0  0  0  0  0  0  0  0  0  0  0
   -0.7655    0.1898   -1.5197 H   0  0  0  0  0  0  0  0  0  0  0  0
  1  2  1  0
  2  3  1  0
  3  4  1  0
  4  5  2  0
  5  6  1  0
  6  7  1  0
  6  8  2  0
  8  9  1  0
  2 10  1  0
 10 11  2  0
 11 12  1  0
 12 13  2  0
 13 14  1  0
 14 15  1  0
 15 16  2  0
 16 17  1  0
 16 18  1  0
 18 19  2  0
 19 20  1  0
 20 21  1  0
 21 22  2  0
 21 23  1  0
 13 24  1  0
  9  3  2  0
 24 10  1  0
 20 14  2  0
  1 25  1  0
  1 26  1  0
  1 27  1  0
  4 28  1  0
  5 29  1  0
  7 30  1  0
  8 31  1  0
  9 32  1  0
 11 33  1  0
 12 34  1  0
 15 35  1  0
 17 36  1  0
 18 37  1  0
 19 38  1  0
 24 39  1  0
M  CHG  2  21   1  23  -1
M  END
$$$$
