
     RDKit          3D

 33 35  0  0  0  0  0  0  0  0999 V2000
    1.6644   -1.7289    2.2290 C   0  0  0  0  0  0  0  0  0  0  0  0
    0.7089   -1.0269    1.3310 C   0  0  0  0  0  0  0  0  0  0  0  0
   -0.7113   -1.0634    1.4365 C   0  0  0  0  0  0  0  0  0  0  0  0
   -1.2537   -0.3080    0.4129 C   0  0  0  0  0  0  0  0  0  0  0  0
   -2.6477   -0.0108    0.0785 C   0  0  0  0  0  0  0  0  0  0  0  0
   -3.6041    0.1272    1.0935 C   0  0  0  0  0  0  0  0  0  0  0  0
   -4.9367    0.4143    0.7859 C   0  0  0  0  0  0  0  0  0  0  0  0
   -5.3296    0.5629   -0.5420 C   0  0  0  0  0  0  0  0  0  0  0  0
   -4.3916    0.4226   -1.5622 C   0  0  0  0  0  0  0  0  0  0  0  0
   -3.0584    0.1368   -1.2540 C   0  0  0  0  0  0  0  0  0  0  0  0
   -0.1867    0.1938   -0.2963 N   0  0  0  0  0  0  0  0  0  0  0  0
    1.0107   -0.2284    0.2367 C   0  0  0  0  0  0  0  0  0  0  0  0
    2.2914    0.1829   -0.3340 C   0  0  0  0  0  0  0  0  0  0  0  0
    3.2657    0.7866    0.4695 C   0  0  0  0  0  0  0  0  0  0  0  0
    4.4867    1.1880   -0.0773 C   0  0  0  0  0  0  0  0  0  0  0  0
    4.7437    0.9876   -1.4324 C   0  0  0  0  0  0  0  0  0  0  0  0
    3.7814    0.3859   -2.2413 C   0  0  0  0  0  0  0  0  0  0  0  0
    2.5596   -0.0142   -1.6947 C   0  0  0  0  0  0  0  0  0  0  0  0
    2.4739   -2.1915    1.6553 H   0  0  0  0  0  0  0  0  0  0  0  0
    2.1007   -1.0257    2.9452 H   0  0  0  0  0  0  0  0  0  0  0  0
    1.1621   -2.5210    2.7940 H   0  0  0  0  0  0  0  0  0  0  0  0
   -1.2799   -1.6036    2.1832 H   0  0  0  0  0  0  0  0  0  0  0  0
   -3.3163    0.0238    2.1370 H   0  0  0  0  0  0  0  0  0  0  0  0
   -5.6654    0.5223    1.5849 H   0  0  0  0  0  0  0  0  0  0  0  0
   -6.3664    0.7841   -0.7814 H   0  0  0  0  0  0  0  0  0  0  0  0
   -4.6978    0.5290   -2.5996 H   0  0  0  0  0  0  0  0  0  0  0  0
   -2.3520    0.0103   -2.0700 H   0  0  0  0  0  0  0  0  0  0  0  0
   -0.2655    0.8257   -1.0800 H   0  0  0  0  0  0  0  0  0  0  0  0
    3.0742    0.9584    1.5259 H   0  0  0  0  0  0  0  0  0  0  0  0
    5.2351    1.6579    0.5553 H   0  0  0  0  0  0  0  0  0  0  0  0
    5.6949    1.2981   -1.8571 H   0  0  0  0  0  0  0  0  0  0  0  0
    3.9833    0.2224   -3.2965 H   0  0  0  0  0  0  0  0  0  0  0  0
    1.8266   -0.4983   -2.3353 H   0  0  0  0  0  0  0  0  0  0  0  0
  1  2  1  0
  2  3  1  0
  3  4  2  0
  4  5  1  0
  5  6  2  0
  6  7  1  0
  7  8  2  0
  8  9  1  0
  9 10  2  0
  4 11  1  0
 11 12  1  0
 12 13  1  0
 13 14  2  0
 14 15  1  0
 15 16  2  0
 16 17  1  0
 17 18  2  0
 12  2  2  0
 18 13  1  0
 10  5  1  0
  1 19  1  0
  1 20  1  0
  1 21  1  0
  3 22  1  0
  6 23  1  0
  7 24  1  0
  8 25  1  0
  9 26  1  0
 10 27  1  0
 11 28  1  0
 14 29  1  0
 15 30  1  0
 16 31  1  0
 17 32  1  0
 18 33  1  0
M  END
$$$$
