
     RDKit          3D

 39 41  0  0  0  0  0  0  0  0999 V2000
   -3.8152   -1.8007    0.3046 C   0  0  0  0  0  0  0  0  0  0  0  0
   -2.5218   -1.3538   -0.2645 C   0  0  0  0  0  0  0  0  0  0  0  0
   -1.8173   -1.7868   -1.3658 C   0  0  0  0  0  0  0  0  0  0  0  0
   -0.6187   -1.0181   -1.4620 C   0  0  0  0  0  0  0  0  0  0  0  0
    0.3828   -1.1533   -2.5531 C   0  0  0  0  0  0  0  0  0  0  0  0
   -0.6285   -0.1254   -0.3970 C   0  0  0  0  0  0  0  0  0  0  0  0
    0.2973    0.8323    0.0370 N   0  0  0  0  0  0  0  0  0  0  0  0
    1.6790    0.5645   -0.0243 C   0  0  0  0  0  0  0  0  0  0  0  0
    2.5447    1.4186   -0.2422 O   0  0  0  0  0  0  0  0  0  0  0  0
    2.1577   -0.8293    0.2579 C   0  0  0  0  0  0  0  0  0  0  0  0
    3.3424   -1.2654   -0.3298 C   0  0  0  0  0  0  0  0  0  0  0  0
    3.7968   -2.5473   -0.0345 C   0  0  0  0  0  0  0  0  0  0  0  0
    3.0662   -3.3423    0.8421 C   0  0  0  0  0  0  0  0  0  0  0  0
    1.9106   -2.8188    1.4003 C   0  0  0  0  0  0  0  0  0  0  0  0
    1.4461   -1.5788    1.1421 N   0  0  0  0  0  0  0  0  0  0  0  0
   -0.1899    2.1432    0.3800 C   0  0  0  0  0  0  0  0  0  0  0  0
   -1.4106    2.6422   -0.1109 C   0  0  0  0  0  0  0  0  0  0  0  0
   -1.8733    3.9131    0.2477 C   0  0  0  0  0  0  0  0  0  0  0  0
   -1.1220    4.7137    1.1017 C   0  0  0  0  0  0  0  0  0  0  0  0
    0.0942    4.2473    1.5899 C   0  0  0  0  0  0  0  0  0  0  0  0
    0.5559    2.9767    1.2292 C   0  0  0  0  0  0  0  0  0  0  0  0
   -1.7903   -0.3477    0.3104 N   0  0  0  0  0  0  0  0  0  0  0  0
   -4.5272   -0.9700    0.3413 H   0  0  0  0  0  0  0  0  0  0  0  0
   -3.6763   -2.1840    1.3206 H   0  0  0  0  0  0  0  0  0  0  0  0
   -4.2561   -2.5984   -0.3016 H   0  0  0  0  0  0  0  0  0  0  0  0
   -2.1303   -2.5728   -2.0420 H   0  0  0  0  0  0  0  0  0  0  0  0
   -0.1162   -1.3525   -3.5076 H   0  0  0  0  0  0  0  0  0  0  0  0
    0.9716   -0.2399   -2.6782 H   0  0  0  0  0  0  0  0  0  0  0  0
    1.0614   -1.9866   -2.3481 H   0  0  0  0  0  0  0  0  0  0  0  0
    3.8972   -0.6197   -1.0031 H   0  0  0  0  0  0  0  0  0  0  0  0
    4.7141   -2.9200   -0.4815 H   0  0  0  0  0  0  0  0  0  0  0  0
    3.3931   -4.3462    1.0906 H   0  0  0  0  0  0  0  0  0  0  0  0
    1.3109   -3.4019    2.0937 H   0  0  0  0  0  0  0  0  0  0  0  0
   -2.0056    2.0693   -0.8183 H   0  0  0  0  0  0  0  0  0  0  0  0
   -2.8142    4.2796   -0.1545 H   0  0  0  0  0  0  0  0  0  0  0  0
   -1.4769    5.7032    1.3769 H   0  0  0  0  0  0  0  0  0  0  0  0
    0.6919    4.8700    2.2507 H   0  0  0  0  0  0  0  0  0  0  0  0
    1.5062    2.6448    1.6410 H   0  0  0  0  0  0  0  0  0  0  0  0
   -2.0296    0.1415    1.1616 H   0  0  0  0  0  0  0  0  0  0  0  0
  1  2  1  0
  2  3  2  0
  3  4  1  0
  4  5  1  0
  4  6  2  0
  6  7  1  0
  7  8  1  0
  8  9  2  0
  8 10  1  0
 10 11  2  0
 11 12  1  0
 12 13  2  0
 13 14  1  0
 14 15  2  0
  7 16  1  0
 16 17  2  0
 17 18  1  0
 18 19  2  0
 19 20  1  0
 20 21  2  0
  6 22  1  0
 22  2  1  0
 15 10  1  0
 21 16  1  0
  1 23  1  0
  1 24  1  0
  1 25  1  0
  3 26  1  0
  5 27  1  0
  5 28  1  0
  5 29  1  0
 11 30  1  0
 12 31  1  0
 13 32  1  0
 14 33  1  0
 17 34  1  0
 18 35  1  0
 19 36  1  0
 20 37  1  0
 21 38  1  0
 22 39  1  0
M  END
$$$$
