
     RDKit          3D

 39 41  0  0  0  0  0  0  0  0999 V2000
   -5.8561    0.7185    0.1985 C   0  0  0  0  0  0  0  0  0  0  0  0
   -4.6697    0.0378   -0.4170 C   0  0  0  0  0  0  0  0  0  0  0  0
   -4.7889   -0.6204   -1.6459 C   0  0  0  0  0  0  0  0  0  0  0  0
   -3.6775   -1.2260   -2.2325 C   0  0  0  0  0  0  0  0  0  0  0  0
   -2.4344   -1.1687   -1.6007 C   0  0  0  0  0  0  0  0  0  0  0  0
   -2.2917   -0.5026   -0.3780 C   0  0  0  0  0  0  0  0  0  0  0  0
   -0.9884   -0.4292    0.2789 C   0  0  0  0  0  0  0  0  0  0  0  0
    0.1238    0.0530   -0.3734 N   0  0  0  0  0  0  0  0  0  0  0  0
    1.2269    0.0451    0.4496 C   0  0  0  0  0  0  0  0  0  0  0  0
    2.5503    0.4987    0.0235 C   0  0  0  0  0  0  0  0  0  0  0  0
    2.6972    1.5926   -0.8460 C   0  0  0  0  0  0  0  0  0  0  0  0
    3.9653    2.0341   -1.2490 C   0  0  0  0  0  0  0  0  0  0  0  0
    5.1054    1.3816   -0.7879 C   0  0  0  0  0  0  0  0  0  0  0  0
    6.3405    1.8263   -1.1552 O   0  0  0  0  0  0  0  0  0  0  0  0
    4.9592    0.2930    0.0700 C   0  0  0  0  0  0  0  0  0  0  0  0
    6.1239   -0.4169    0.5525 N   0  0  0  0  0  0  0  0  0  0  0  0
    6.3120   -0.4156    1.7777 O   0  0  0  0  0  0  0  0  0  0  0  0
    6.8116   -1.0216   -0.2817 O   0  0  0  0  0  0  0  0  0  0  0  0
    3.6987   -0.1514    0.4877 C   0  0  0  0  0  0  0  0  0  0  0  0
    0.8000   -0.4771    1.6572 C   0  0  0  0  0  0  0  0  0  0  0  0
   -0.5901   -0.7729    1.5629 C   0  0  0  0  0  0  0  0  0  0  0  0
   -1.4301   -1.3540    2.6446 C   0  0  0  0  0  0  0  0  0  0  0  0
   -3.4139    0.1016    0.2038 C   0  0  0  0  0  0  0  0  0  0  0  0
   -6.7803    0.1817   -0.0399 H   0  0  0  0  0  0  0  0  0  0  0  0
   -5.9347    1.7437   -0.1762 H   0  0  0  0  0  0  0  0  0  0  0  0
   -5.7694    0.7467    1.2897 H   0  0  0  0  0  0  0  0  0  0  0  0
   -5.7506   -0.6690   -2.1518 H   0  0  0  0  0  0  0  0  0  0  0  0
   -3.7808   -1.7466   -3.1810 H   0  0  0  0  0  0  0  0  0  0  0  0
   -1.5829   -1.6624   -2.0625 H   0  0  0  0  0  0  0  0  0  0  0  0
    0.1204    0.3696   -1.3324 H   0  0  0  0  0  0  0  0  0  0  0  0
    1.8230    2.1355   -1.2002 H   0  0  0  0  0  0  0  0  0  0  0  0
    4.0366    2.8938   -1.9097 H   0  0  0  0  0  0  0  0  0  0  0  0
    6.2564    2.5528   -1.7960 H   0  0  0  0  0  0  0  0  0  0  0  0
    3.6174   -1.0047    1.1578 H   0  0  0  0  0  0  0  0  0  0  0  0
    1.4214   -0.6252    2.5321 H   0  0  0  0  0  0  0  0  0  0  0  0
   -2.0468   -0.5770    3.1069 H   0  0  0  0  0  0  0  0  0  0  0  0
   -0.8082   -1.8031    3.4259 H   0  0  0  0  0  0  0  0  0  0  0  0
   -2.0882   -2.1359    2.2523 H   0  0  0  0  0  0  0  0  0  0  0  0
   -3.3071    0.6357    1.1457 H   0  0  0  0  0  0  0  0  0  0  0  0
  1  2  1  0
  2  3  2  0
  3  4  1  0
  4  5  2  0
  5  6  1  0
  6  7  1  0
  7  8  1  0
  8  9  1  0
  9 10  1  0
 10 11  1  0
 11 12  2  0
 12 13  1  0
 13 14  1  0
 13 15  2  0
 15 16  1  0
 16 17  2  0
 16 18  1  0
 15 19  1  0
  9 20  2  0
 20 21  1  0
 21 22  1  0
  6 23  2  0
 23  2  1  0
 21  7  2  0
 19 10  2  0
  1 24  1  0
  1 25  1  0
  1 26  1  0
  3 27  1  0
  4 28  1  0
  5 29  1  0
  8 30  1  0
 11 31  1  0
 12 32  1  0
 14 33  1  0
 19 34  1  0
 20 35  1  0
 22 36  1  0
 22 37  1  0
 22 38  1  0
 23 39  1  0
M  CHG  2  16   1  18  -1
M  END
$$$$
