
     RDKit          3D

 34 35  0  0  0  0  0  0  0  0999 V2000
   -3.6583    2.8113    0.9651 C   0  0  0  0  0  0  0  0  0  0  0  0
   -3.0026    1.5476    0.5513 C   0  0  0  0  0  0  0  0  0  0  0  0
   -3.1965    0.7503   -0.5563 C   0  0  0  0  0  0  0  0  0  0  0  0
   -2.3012   -0.3511   -0.4702 C   0  0  0  0  0  0  0  0  0  0  0  0
   -2.1683   -1.4569   -1.4549 C   0  0  0  0  0  0  0  0  0  0  0  0
   -1.5753   -0.1860    0.6999 C   0  0  0  0  0  0  0  0  0  0  0  0
   -0.4946   -1.0288    1.3094 C   0  0  0  0  0  0  0  0  0  0  0  0
    0.8332   -0.8857    0.6021 C   0  0  0  0  0  0  0  0  0  0  0  0
    1.5315    0.3347    0.6533 C   0  0  0  0  0  0  0  0  0  0  0  0
    2.7616    0.4959   -0.0058 C   0  0  0  0  0  0  0  0  0  0  0  0
    3.4396    1.8109    0.0938 C   0  0  0  0  0  0  0  0  0  0  0  0
    3.0515    2.7691    0.7356 O   0  0  0  0  0  0  0  0  0  0  0  0
    4.5803    1.8634   -0.6172 O   0  0  0  0  0  0  0  0  0  0  0  0
    3.3156   -0.5679   -0.7275 C   0  0  0  0  0  0  0  0  0  0  0  0
    2.6303   -1.7751   -0.7754 C   0  0  0  0  0  0  0  0  0  0  0  0
    3.1211   -2.8534   -1.4627 O   0  0  0  0  0  0  0  0  0  0  0  0
    1.4071   -1.9340   -0.1183 C   0  0  0  0  0  0  0  0  0  0  0  0
    0.7811   -3.1483   -0.1970 O   0  0  0  0  0  0  0  0  0  0  0  0
   -2.0188    0.9642    1.3083 N   0  0  0  0  0  0  0  0  0  0  0  0
   -2.9218    3.6166    1.0509 H   0  0  0  0  0  0  0  0  0  0  0  0
   -4.1531    2.6887    1.9339 H   0  0  0  0  0  0  0  0  0  0  0  0
   -4.4137    3.1192    0.2352 H   0  0  0  0  0  0  0  0  0  0  0  0
   -3.9092    0.9390   -1.3494 H   0  0  0  0  0  0  0  0  0  0  0  0
   -3.0032   -1.4559   -2.1631 H   0  0  0  0  0  0  0  0  0  0  0  0
   -1.2398   -1.3499   -2.0245 H   0  0  0  0  0  0  0  0  0  0  0  0
   -2.1586   -2.4280   -0.9501 H   0  0  0  0  0  0  0  0  0  0  0  0
   -0.8267   -2.0737    1.3213 H   0  0  0  0  0  0  0  0  0  0  0  0
   -0.3523   -0.7599    2.3646 H   0  0  0  0  0  0  0  0  0  0  0  0
    1.1074    1.1734    1.2038 H   0  0  0  0  0  0  0  0  0  0  0  0
    4.9055    2.7760   -0.4647 H   0  0  0  0  0  0  0  0  0  0  0  0
    4.2653   -0.4477   -1.2382 H   0  0  0  0  0  0  0  0  0  0  0  0
    3.9608   -2.5939   -1.8807 H   0  0  0  0  0  0  0  0  0  0  0  0
    1.3693   -3.6955   -0.7551 H   0  0  0  0  0  0  0  0  0  0  0  0
   -1.6672    1.3312    2.1828 H   0  0  0  0  0  0  0  0  0  0  0  0
  1  2  1  0
  2  3  2  0
  3  4  1  0
  4  5  1  0
  4  6  2  0
  6  7  1  0
  7  8  1  0
  8  9  1  0
  9 10  2  0
 10 11  1  0
 11 12  2  0
 11 13  1  0
 10 14  1  0
 14 15  2  0
 15 16  1  0
 15 17  1  0
 17 18  1  0
  6 19  1  0
 19  2  1  0
 17  8  2  0
  1 20  1  0
  1 21  1  0
  1 22  1  0
  3 23  1  0
  5 24  1  0
  5 25  1  0
  5 26  1  0
  7 27  1  0
  7 28  1  0
  9 29  1  0
 13 30  1  0
 14 31  1  0
 16 32  1  0
 18 33  1  0
 19 34  1  0
M  END
$$$$
