
     RDKit          3D

 44 45  0  0  0  0  0  0  0  0999 V2000
   -4.7123   -0.9909    2.0095 C   0  0  0  0  0  0  0  0  0  0  0  0
   -4.1684   -0.2992    0.7516 N   0  0  0  0  0  0  0  0  0  0  0  0
   -5.0756    0.8889    0.4462 C   0  0  0  0  0  0  0  0  0  0  0  0
   -4.2308   -1.3005   -0.3887 C   0  0  0  0  0  0  0  0  0  0  0  0
   -2.7145    0.1460    1.0734 C   0  0  0  0  0  0  0  0  0  0  0  0
   -2.0174    1.1479    0.1267 C   0  0  0  0  0  0  0  0  0  0  0  0
   -2.7483    2.3818    0.0558 O   0  0  0  0  0  0  0  0  0  0  0  0
   -1.7422    0.6228   -1.2855 C   0  0  0  0  0  0  0  0  0  0  0  0
   -0.6733    1.3606   -1.8931 O   0  0  0  0  0  0  0  0  0  0  0  0
    0.5816    0.8968   -1.5436 C   0  0  0  0  0  0  0  0  0  0  0  0
    1.6585    1.4901   -2.1793 C   0  0  0  0  0  0  0  0  0  0  0  0
    2.9417    1.0765   -1.8280 C   0  0  0  0  0  0  0  0  0  0  0  0
    3.1167    0.0901   -0.8517 C   0  0  0  0  0  0  0  0  0  0  0  0
    4.4528   -0.3690   -0.4556 C   0  0  0  0  0  0  0  0  0  0  0  0
    5.1809   -1.1880   -1.3394 C   0  0  0  0  0  0  0  0  0  0  0  0
    6.4549   -1.6564   -1.0092 C   0  0  0  0  0  0  0  0  0  0  0  0
    7.0282   -1.3132    0.2113 C   0  0  0  0  0  0  0  0  0  0  0  0
    6.3301   -0.4997    1.1019 C   0  0  0  0  0  0  0  0  0  0  0  0
    5.0533   -0.0295    0.7727 C   0  0  0  0  0  0  0  0  0  0  0  0
    4.1909    1.0968    2.0424 Br  0  0  0  0  0  0  0  0  0  0  0  0
    1.9586   -0.4397   -0.2801 C   0  0  0  0  0  0  0  0  0  0  0  0
    0.6939   -0.0586   -0.5937 N   0  0  0  0  0  0  0  0  0  0  0  0
   -4.7192   -0.2668    2.8299 H   0  0  0  0  0  0  0  0  0  0  0  0
   -4.0595   -1.8365    2.2456 H   0  0  0  0  0  0  0  0  0  0  0  0
   -5.7295   -1.3392    1.8055 H   0  0  0  0  0  0  0  0  0  0  0  0
   -4.9597    1.6313    1.2406 H   0  0  0  0  0  0  0  0  0  0  0  0
   -4.8151    1.2930   -0.5347 H   0  0  0  0  0  0  0  0  0  0  0  0
   -6.1095    0.5298    0.4173 H   0  0  0  0  0  0  0  0  0  0  0  0
   -3.5165   -2.1039   -0.1877 H   0  0  0  0  0  0  0  0  0  0  0  0
   -3.9959   -0.7955   -1.3256 H   0  0  0  0  0  0  0  0  0  0  0  0
   -5.2477   -1.7017   -0.4436 H   0  0  0  0  0  0  0  0  0  0  0  0
   -2.7751    0.6196    2.0616 H   0  0  0  0  0  0  0  0  0  0  0  0
   -2.1194   -0.7697    1.1712 H   0  0  0  0  0  0  0  0  0  0  0  0
   -1.0720    1.4137    0.6134 H   0  0  0  0  0  0  0  0  0  0  0  0
   -2.1845    3.0087   -0.4423 H   0  0  0  0  0  0  0  0  0  0  0  0
   -1.5485   -0.4563   -1.3163 H   0  0  0  0  0  0  0  0  0  0  0  0
   -2.6135    0.8106   -1.9220 H   0  0  0  0  0  0  0  0  0  0  0  0
    1.5085    2.2598   -2.9283 H   0  0  0  0  0  0  0  0  0  0  0  0
    3.8036    1.5330   -2.3108 H   0  0  0  0  0  0  0  0  0  0  0  0
    4.7542   -1.4716   -2.3006 H   0  0  0  0  0  0  0  0  0  0  0  0
    7.0003   -2.2881   -1.7070 H   0  0  0  0  0  0  0  0  0  0  0  0
    8.0214   -1.6749    0.4679 H   0  0  0  0  0  0  0  0  0  0  0  0
    6.7934   -0.2326    2.0491 H   0  0  0  0  0  0  0  0  0  0  0  0
    2.0246   -1.2162    0.4794 H   0  0  0  0  0  0  0  0  0  0  0  0
  1  2  1  0
  2  3  1  0
  2  4  1  0
  2  5  1  0
  5  6  1  0
  6  7  1  0
  6  8  1  0
  8  9  1  0
  9 10  1  0
 10 11  2  0
 11 12  1  0
 12 13  2  0
 13 14  1  0
 14 15  2  0
 15 16  1  0
 16 17  2  0
 17 18  1  0
 18 19  2  0
 19 20  1  0
 13 21  1  0
 21 22  2  0
 22 10  1  0
 19 14  1  0
  1 23  1  0
  1 24  1  0
  1 25  1  0
  3 26  1  0
  3 27  1  0
  3 28  1  0
  4 29  1  0
  4 30  1  0
  4 31  1  0
  5 32  1  0
  5 33  1  0
  6 34  1  0
  7 35  1  0
  8 36  1  0
  8 37  1  0
 11 38  1  0
 12 39  1  0
 15 40  1  0
 16 41  1  0
 17 42  1  0
 18 43  1  0
 21 44  1  0
M  CHG  1   2   1
M  END
$$$$
