
     RDKit          3D

 22 23  0  0  0  0  0  0  0  0999 V2000
   -3.8735    1.8467   -1.5465 Cl  0  0  0  0  0  0  0  0  0  0  0  0
   -2.9112    0.7024   -0.6935 C   0  0  0  0  0  0  0  0  0  0  0  0
   -3.5261   -0.3502   -0.0208 C   0  0  0  0  0  0  0  0  0  0  0  0
   -2.7452   -1.2757    0.6676 C   0  0  0  0  0  0  0  0  0  0  0  0
   -1.3537   -1.1434    0.6791 C   0  0  0  0  0  0  0  0  0  0  0  0
   -0.7177   -0.0858    0.0053 C   0  0  0  0  0  0  0  0  0  0  0  0
    0.7483    0.0502    0.0210 C   0  0  0  0  0  0  0  0  0  0  0  0
    1.5785   -1.0152   -0.3660 C   0  0  0  0  0  0  0  0  0  0  0  0
    2.9702   -0.8866   -0.3524 C   0  0  0  0  0  0  0  0  0  0  0  0
    3.5557    0.3109    0.0499 C   0  0  0  0  0  0  0  0  0  0  0  0
    2.7515    1.3793    0.4378 C   0  0  0  0  0  0  0  0  0  0  0  0
    1.3600    1.2495    0.4226 C   0  0  0  0  0  0  0  0  0  0  0  0
   -1.5220    0.8376   -0.6832 C   0  0  0  0  0  0  0  0  0  0  0  0
   -4.6076   -0.4539   -0.0289 H   0  0  0  0  0  0  0  0  0  0  0  0
   -3.2167   -2.0990    1.1984 H   0  0  0  0  0  0  0  0  0  0  0  0
   -0.7619   -1.8705    1.2330 H   0  0  0  0  0  0  0  0  0  0  0  0
    1.1426   -1.9563   -0.6954 H   0  0  0  0  0  0  0  0  0  0  0  0
    3.5948   -1.7215   -0.6592 H   0  0  0  0  0  0  0  0  0  0  0  0
    4.6378    0.4116    0.0608 H   0  0  0  0  0  0  0  0  0  0  0  0
    3.2052    2.3148    0.7548 H   0  0  0  0  0  0  0  0  0  0  0  0
    0.7519    2.0943    0.7403 H   0  0  0  0  0  0  0  0  0  0  0  0
   -1.0611    1.6608   -1.2248 H   0  0  0  0  0  0  0  0  0  0  0  0
  1  2  1  0
  2  3  1  0
  3  4  2  0
  4  5  1  0
  5  6  2  0
  6  7  1  0
  7  8  2  0
  8  9  1  0
  9 10  2  0
 10 11  1  0
 11 12  2  0
  6 13  1  0
 13  2  2  0
 12  7  1  0
  3 14  1  0
  4 15  1  0
  5 16  1  0
  8 17  1  0
  9 18  1  0
 10 19  1  0
 11 20  1  0
 12 21  1  0
 13 22  1  0
M  END
$$$$
