
     RDKit          3D

 38 40  0  0  0  0  0  0  0  0999 V2000
    4.8359    1.0918    1.3598 C   0  0  0  0  0  0  0  0  0  0  0  0
    4.0226    0.4345    0.2845 C   0  0  0  0  0  0  0  0  0  0  0  0
    4.6353   -0.0320   -0.8840 C   0  0  0  0  0  0  0  0  0  0  0  0
    3.8804   -0.6617   -1.8738 C   0  0  0  0  0  0  0  0  0  0  0  0
    2.5076   -0.8401   -1.6999 C   0  0  0  0  0  0  0  0  0  0  0  0
    1.8820   -0.3882   -0.5338 C   0  0  0  0  0  0  0  0  0  0  0  0
    0.4476   -0.6296   -0.3460 C   0  0  0  0  0  0  0  0  0  0  0  0
   -0.5198    0.3011   -0.3283 C   0  0  0  0  0  0  0  0  0  0  0  0
   -0.3257    1.7921   -0.4932 C   0  0  0  0  0  0  0  0  0  0  0  0
    0.7085    2.3876   -0.7216 O   0  0  0  0  0  0  0  0  0  0  0  0
   -1.5911    2.3289   -0.3250 N   0  0  0  0  0  0  0  0  0  0  0  0
   -1.9215    3.7262   -0.3878 C   0  0  0  0  0  0  0  0  0  0  0  0
   -2.5498    1.3367   -0.1024 C   0  0  0  0  0  0  0  0  0  0  0  0
   -3.8499    1.5844    0.0853 N   0  0  0  0  0  0  0  0  0  0  0  0
   -4.5897    0.4866    0.2689 C   0  0  0  0  0  0  0  0  0  0  0  0
   -4.1374   -0.7828    0.2579 N   0  0  0  0  0  0  0  0  0  0  0  0
   -2.8123   -0.9721    0.0674 C   0  0  0  0  0  0  0  0  0  0  0  0
   -2.4066   -2.3791    0.0095 C   0  0  0  0  0  0  0  0  0  0  0  0
   -2.8029   -3.3507    0.8572 C   0  0  0  0  0  0  0  0  0  0  0  0
   -2.3469   -4.6810    0.6353 C   0  0  0  0  0  0  0  0  0  0  0  0
   -1.9499   -5.7510    0.4271 N   0  0  0  0  0  0  0  0  0  0  0  0
   -3.6283   -3.1065    1.9933 C   0  0  0  0  0  0  0  0  0  0  0  0
   -4.2756   -2.9212    2.9388 N   0  0  0  0  0  0  0  0  0  0  0  0
   -1.9557    0.0849   -0.1156 C   0  0  0  0  0  0  0  0  0  0  0  0
    2.6457    0.2366    0.4597 C   0  0  0  0  0  0  0  0  0  0  0  0
    5.1859    0.3414    2.0754 H   0  0  0  0  0  0  0  0  0  0  0  0
    4.2431    1.8421    1.8936 H   0  0  0  0  0  0  0  0  0  0  0  0
    5.7037    1.6069    0.9347 H   0  0  0  0  0  0  0  0  0  0  0  0
    5.7047    0.0993   -1.0330 H   0  0  0  0  0  0  0  0  0  0  0  0
    4.3633   -1.0120   -2.7823 H   0  0  0  0  0  0  0  0  0  0  0  0
    1.9351   -1.3309   -2.4826 H   0  0  0  0  0  0  0  0  0  0  0  0
    0.2264   -1.6819   -0.2079 H   0  0  0  0  0  0  0  0  0  0  0  0
   -2.6247    3.8956   -1.2086 H   0  0  0  0  0  0  0  0  0  0  0  0
   -2.3748    4.0351    0.5588 H   0  0  0  0  0  0  0  0  0  0  0  0
   -1.0220    4.3232   -0.5624 H   0  0  0  0  0  0  0  0  0  0  0  0
   -5.6528    0.6269    0.4374 H   0  0  0  0  0  0  0  0  0  0  0  0
   -1.7579   -2.6269   -0.8285 H   0  0  0  0  0  0  0  0  0  0  0  0
    2.1677    0.5859    1.3723 H   0  0  0  0  0  0  0  0  0  0  0  0
  1  2  1  0
  2  3  2  0
  3  4  1  0
  4  5  2  0
  5  6  1  0
  6  7  1  0
  7  8  2  3
  8  9  1  0
  9 10  2  0
  9 11  1  0
 11 12  1  0
 11 13  1  0
 13 14  2  0
 14 15  1  0
 15 16  2  0
 16 17  1  0
 17 18  1  0
 18 19  2  3
 19 20  1  0
 20 21  3  0
 19 22  1  0
 22 23  3  0
 17 24  2  0
  6 25  2  0
 25  2  1  0
 24  8  1  0
 24 13  1  0
  1 26  1  0
  1 27  1  0
  1 28  1  0
  3 29  1  0
  4 30  1  0
  5 31  1  0
  7 32  1  0
 12 33  1  0
 12 34  1  0
 12 35  1  0
 15 36  1  0
 18 37  1  0
 25 38  1  0
M  END
$$$$
