
     RDKit          3D

 25 26  0  0  0  0  0  0  0  0999 V2000
   -2.7805    2.8045    0.6289 O   0  0  0  0  0  0  0  0  0  0  0  0
   -3.2882    1.6749    0.6153 N   0  0  0  0  0  0  0  0  0  0  0  0
   -4.4960    1.4462    0.7928 O   0  0  0  0  0  0  0  0  0  0  0  0
   -2.4123    0.5258    0.3768 C   0  0  0  0  0  0  0  0  0  0  0  0
   -1.0449    0.7554    0.1390 C   0  0  0  0  0  0  0  0  0  0  0  0
   -0.1670   -0.3170   -0.0948 C   0  0  0  0  0  0  0  0  0  0  0  0
    1.2650   -0.0837   -0.3462 C   0  0  0  0  0  0  0  0  0  0  0  0
    1.8946   -0.6148   -1.4856 C   0  0  0  0  0  0  0  0  0  0  0  0
    3.2533   -0.3947   -1.7295 C   0  0  0  0  0  0  0  0  0  0  0  0
    4.0083    0.3612   -0.8359 C   0  0  0  0  0  0  0  0  0  0  0  0
    3.3991    0.8931    0.2972 C   0  0  0  0  0  0  0  0  0  0  0  0
    4.4203    1.9173    1.5155 Br  0  0  0  0  0  0  0  0  0  0  0  0
    2.0419    0.6765    0.5442 C   0  0  0  0  0  0  0  0  0  0  0  0
   -0.6953   -1.6187   -0.0825 C   0  0  0  0  0  0  0  0  0  0  0  0
   -2.0544   -1.8475    0.1538 C   0  0  0  0  0  0  0  0  0  0  0  0
   -2.9179   -0.7794    0.3832 C   0  0  0  0  0  0  0  0  0  0  0  0
   -4.2237   -1.1233    0.6011 O   0  0  0  0  0  0  0  0  0  0  0  0
   -0.6534    1.7723    0.1214 H   0  0  0  0  0  0  0  0  0  0  0  0
    1.3233   -1.1997   -2.2047 H   0  0  0  0  0  0  0  0  0  0  0  0
    3.7199   -0.8116   -2.6187 H   0  0  0  0  0  0  0  0  0  0  0  0
    5.0641    0.5292   -1.0307 H   0  0  0  0  0  0  0  0  0  0  0  0
    1.5888    1.0923    1.4417 H   0  0  0  0  0  0  0  0  0  0  0  0
   -0.0434   -2.4758   -0.2472 H   0  0  0  0  0  0  0  0  0  0  0  0
   -2.4380   -2.8656    0.1611 H   0  0  0  0  0  0  0  0  0  0  0  0
   -4.7638   -0.3169    0.7418 H   0  0  0  0  0  0  0  0  0  0  0  0
  1  2  2  0
  2  3  1  0
  2  4  1  0
  4  5  1  0
  5  6  2  0
  6  7  1  0
  7  8  2  0
  8  9  1  0
  9 10  2  0
 10 11  1  0
 11 12  1  0
 11 13  2  0
  6 14  1  0
 14 15  2  0
 15 16  1  0
 16 17  1  0
 16  4  2  0
 13  7  1  0
  5 18  1  0
  8 19  1  0
  9 20  1  0
 10 21  1  0
 13 22  1  0
 14 23  1  0
 15 24  1  0
 17 25  1  0
M  CHG  2   2   1   3  -1
M  END
$$$$
