
     RDKit          3D

 25 26  0  0  0  0  0  0  0  0999 V2000
   -2.9993    2.9799   -0.0835 O   0  0  0  0  0  0  0  0  0  0  0  0
   -3.2605    1.8438   -0.5053 N   0  0  0  0  0  0  0  0  0  0  0  0
   -4.1433    1.5653   -1.3283 O   0  0  0  0  0  0  0  0  0  0  0  0
   -2.4084    0.7671   -0.0475 C   0  0  0  0  0  0  0  0  0  0  0  0
   -1.0440    0.8289   -0.3620 C   0  0  0  0  0  0  0  0  0  0  0  0
   -0.1853   -0.2013    0.0490 C   0  0  0  0  0  0  0  0  0  0  0  0
    1.2510   -0.1631   -0.2702 C   0  0  0  0  0  0  0  0  0  0  0  0
    1.8752   -1.2393   -0.9252 C   0  0  0  0  0  0  0  0  0  0  0  0
    3.2388   -1.2066   -1.2312 C   0  0  0  0  0  0  0  0  0  0  0  0
    4.0030   -0.0946   -0.8854 C   0  0  0  0  0  0  0  0  0  0  0  0
    3.3997    0.9788   -0.2361 C   0  0  0  0  0  0  0  0  0  0  0  0
    4.3419    2.3529    0.1953 Cl  0  0  0  0  0  0  0  0  0  0  0  0
    2.0378    0.9501    0.0698 C   0  0  0  0  0  0  0  0  0  0  0  0
   -0.7374   -1.2730    0.7768 C   0  0  0  0  0  0  0  0  0  0  0  0
   -2.1021   -1.3199    1.0941 C   0  0  0  0  0  0  0  0  0  0  0  0
   -2.9446   -0.2917    0.6821 C   0  0  0  0  0  0  0  0  0  0  0  0
   -4.2660   -0.3187    1.0148 O   0  0  0  0  0  0  0  0  0  0  0  0
   -0.6577    1.6702   -0.9354 H   0  0  0  0  0  0  0  0  0  0  0  0
    1.2956   -2.1140   -1.2163 H   0  0  0  0  0  0  0  0  0  0  0  0
    3.7018   -2.0473   -1.7421 H   0  0  0  0  0  0  0  0  0  0  0  0
    5.0629   -0.0703   -1.1242 H   0  0  0  0  0  0  0  0  0  0  0  0
    1.5914    1.7972    0.5868 H   0  0  0  0  0  0  0  0  0  0  0  0
   -0.0940   -2.0824    1.1216 H   0  0  0  0  0  0  0  0  0  0  0  0
   -2.4785   -2.1609    1.6700 H   0  0  0  0  0  0  0  0  0  0  0  0
   -4.4780   -1.1511    1.4707 H   0  0  0  0  0  0  0  0  0  0  0  0
  1  2  2  0
  2  3  1  0
  2  4  1  0
  4  5  1  0
  5  6  2  0
  6  7  1  0
  7  8  2  0
  8  9  1  0
  9 10  2  0
 10 11  1  0
 11 12  1  0
 11 13  2  0
  6 14  1  0
 14 15  2  0
 15 16  1  0
 16 17  1  0
 16  4  2  0
 13  7  1  0
  5 18  1  0
  8 19  1  0
  9 20  1  0
 10 21  1  0
 13 22  1  0
 14 23  1  0
 15 24  1  0
 17 25  1  0
M  CHG  2   2   1   3  -1
M  END
$$$$
