
     RDKit          3D

 33 35  0  0  0  0  0  0  0  0999 V2000
   -3.2948    2.8043   -1.4378 O   0  0  0  0  0  0  0  0  0  0  0  0
   -2.8053    2.4091   -0.3705 N   0  0  0  0  0  0  0  0  0  0  0  0
   -2.1315    3.0873    0.4162 O   0  0  0  0  0  0  0  0  0  0  0  0
   -3.1098    1.0508    0.0240 C   0  0  0  0  0  0  0  0  0  0  0  0
   -4.3920    0.8115    0.5434 C   0  0  0  0  0  0  0  0  0  0  0  0
   -4.7206   -0.4702    0.9809 C   0  0  0  0  0  0  0  0  0  0  0  0
   -3.7687   -1.4819    0.8919 C   0  0  0  0  0  0  0  0  0  0  0  0
   -4.0439   -2.7508    1.3080 O   0  0  0  0  0  0  0  0  0  0  0  0
   -2.4966   -1.2384    0.3705 C   0  0  0  0  0  0  0  0  0  0  0  0
   -2.1399    0.0425   -0.0784 C   0  0  0  0  0  0  0  0  0  0  0  0
   -0.8054    0.2513   -0.6403 C   0  0  0  0  0  0  0  0  0  0  0  0
   -0.4057    0.8080   -1.8407 C   0  0  0  0  0  0  0  0  0  0  0  0
    1.0090    0.7738   -1.8862 C   0  0  0  0  0  0  0  0  0  0  0  0
    1.4647    0.1849   -0.7203 C   0  0  0  0  0  0  0  0  0  0  0  0
    2.8267   -0.0815   -0.2549 C   0  0  0  0  0  0  0  0  0  0  0  0
    3.8621    0.8152   -0.5508 C   0  0  0  0  0  0  0  0  0  0  0  0
    5.1651    0.5727   -0.1081 C   0  0  0  0  0  0  0  0  0  0  0  0
    5.4484   -0.5725    0.6323 C   0  0  0  0  0  0  0  0  0  0  0  0
    4.4305   -1.4761    0.9288 C   0  0  0  0  0  0  0  0  0  0  0  0
    3.1267   -1.2324    0.4874 C   0  0  0  0  0  0  0  0  0  0  0  0
    0.3450   -0.1154    0.0243 N   0  0  0  0  0  0  0  0  0  0  0  0
   -5.1231    1.6142    0.6119 H   0  0  0  0  0  0  0  0  0  0  0  0
   -5.7105   -0.6602    1.3854 H   0  0  0  0  0  0  0  0  0  0  0  0
   -4.9646   -2.7939    1.6162 H   0  0  0  0  0  0  0  0  0  0  0  0
   -1.7948   -2.0668    0.2984 H   0  0  0  0  0  0  0  0  0  0  0  0
   -1.0579    1.1987   -2.6126 H   0  0  0  0  0  0  0  0  0  0  0  0
    1.6313    1.1336   -2.6958 H   0  0  0  0  0  0  0  0  0  0  0  0
    3.6599    1.7199   -1.1194 H   0  0  0  0  0  0  0  0  0  0  0  0
    5.9564    1.2801   -0.3418 H   0  0  0  0  0  0  0  0  0  0  0  0
    6.4624   -0.7619    0.9748 H   0  0  0  0  0  0  0  0  0  0  0  0
    4.6515   -2.3748    1.4986 H   0  0  0  0  0  0  0  0  0  0  0  0
    2.3563   -1.9647    0.7131 H   0  0  0  0  0  0  0  0  0  0  0  0
    0.3692   -0.5163    0.9517 H   0  0  0  0  0  0  0  0  0  0  0  0
  1  2  2  0
  2  3  1  0
  2  4  1  0
  4  5  1  0
  5  6  2  0
  6  7  1  0
  7  8  1  0
  7  9  2  0
  9 10  1  0
 10 11  1  0
 11 12  2  0
 12 13  1  0
 13 14  2  0
 14 15  1  0
 15 16  2  0
 16 17  1  0
 17 18  2  0
 18 19  1  0
 19 20  2  0
 14 21  1  0
 10  4  2  0
 21 11  1  0
 20 15  1  0
  5 22  1  0
  6 23  1  0
  8 24  1  0
  9 25  1  0
 12 26  1  0
 13 27  1  0
 16 28  1  0
 17 29  1  0
 18 30  1  0
 19 31  1  0
 20 32  1  0
 21 33  1  0
M  CHG  2   2   1   3  -1
M  END
$$$$
