
     RDKit          3D

 48 49  0  0  0  0  0  0  0  0999 V2000
   -0.6718    2.1487    2.6445 C   0  0  0  0  0  0  0  0  0  0  0  0
   -1.9258    1.4456    2.1505 N   0  0  0  0  0  0  0  0  0  0  0  0
   -3.1067    2.4079    2.1939 C   0  0  0  0  0  0  0  0  0  0  0  0
   -2.2253    0.2741    3.0885 C   0  0  0  0  0  0  0  0  0  0  0  0
   -1.7138    0.8605    0.7227 C   0  0  0  0  0  0  0  0  0  0  0  0
   -1.4947    1.9128   -0.3946 C   0  0  0  0  0  0  0  0  0  0  0  0
   -2.6952    2.6563   -0.6171 O   0  0  0  0  0  0  0  0  0  0  0  0
   -1.0744    1.2084   -1.6944 C   0  0  0  0  0  0  0  0  0  0  0  0
    0.1262    0.4983   -1.4398 O   0  0  0  0  0  0  0  0  0  0  0  0
    0.6172   -0.2164   -2.5674 C   0  0  0  0  0  0  0  0  0  0  0  0
    1.5295    0.6649   -3.4204 C   0  0  0  0  0  0  0  0  0  0  0  0
    2.4574   -0.3451   -4.0652 C   0  0  0  0  0  0  0  0  0  0  0  0
    2.7301   -1.3063   -2.9142 C   0  0  0  0  0  0  0  0  0  0  0  0
    1.4476   -1.3767   -2.1863 N   0  0  0  0  0  0  0  0  0  0  0  0
    1.5588   -1.6662   -0.8231 C   0  0  0  0  0  0  0  0  0  0  0  0
    0.8707   -2.7842   -0.3331 C   0  0  0  0  0  0  0  0  0  0  0  0
    0.8845   -3.1010    1.0295 C   0  0  0  0  0  0  0  0  0  0  0  0
    1.5934   -2.2979    1.9274 C   0  0  0  0  0  0  0  0  0  0  0  0
    1.5447   -2.5664    3.3331 C   0  0  0  0  0  0  0  0  0  0  0  0
    1.4548   -2.7158    4.4801 N   0  0  0  0  0  0  0  0  0  0  0  0
    2.3015   -1.1913    1.4581 C   0  0  0  0  0  0  0  0  0  0  0  0
    2.2769   -0.8849    0.0997 C   0  0  0  0  0  0  0  0  0  0  0  0
    2.9239    0.2187   -0.3069 F   0  0  0  0  0  0  0  0  0  0  0  0
   -0.8297    2.4444    3.6863 H   0  0  0  0  0  0  0  0  0  0  0  0
    0.1697    1.4539    2.5693 H   0  0  0  0  0  0  0  0  0  0  0  0
   -0.4948    3.0367    2.0331 H   0  0  0  0  0  0  0  0  0  0  0  0
   -2.8290    3.3384    1.6936 H   0  0  0  0  0  0  0  0  0  0  0  0
   -3.3350    2.6228    3.2424 H   0  0  0  0  0  0  0  0  0  0  0  0
   -3.9645    1.9300    1.7121 H   0  0  0  0  0  0  0  0  0  0  0  0
   -3.1373   -0.2209    2.7413 H   0  0  0  0  0  0  0  0  0  0  0  0
   -1.3771   -0.4168    3.0597 H   0  0  0  0  0  0  0  0  0  0  0  0
   -2.3650    0.6637    4.1016 H   0  0  0  0  0  0  0  0  0  0  0  0
   -2.6152    0.2748    0.5045 H   0  0  0  0  0  0  0  0  0  0  0  0
   -0.8609    0.1797    0.8083 H   0  0  0  0  0  0  0  0  0  0  0  0
   -0.7056    2.6116   -0.1015 H   0  0  0  0  0  0  0  0  0  0  0  0
   -2.5314    3.2905   -1.3419 H   0  0  0  0  0  0  0  0  0  0  0  0
   -0.9196    1.9480   -2.4877 H   0  0  0  0  0  0  0  0  0  0  0  0
   -1.8646    0.5229   -2.0238 H   0  0  0  0  0  0  0  0  0  0  0  0
   -0.2154   -0.6033   -3.1690 H   0  0  0  0  0  0  0  0  0  0  0  0
    2.0918    1.3684   -2.7943 H   0  0  0  0  0  0  0  0  0  0  0  0
    0.9695    1.2521   -4.1541 H   0  0  0  0  0  0  0  0  0  0  0  0
    3.3715    0.1062   -4.4607 H   0  0  0  0  0  0  0  0  0  0  0  0
    1.9443   -0.8643   -4.8835 H   0  0  0  0  0  0  0  0  0  0  0  0
    3.5494   -0.9156   -2.3001 H   0  0  0  0  0  0  0  0  0  0  0  0
    3.0202   -2.2952   -3.2836 H   0  0  0  0  0  0  0  0  0  0  0  0
    0.3157   -3.4149   -1.0261 H   0  0  0  0  0  0  0  0  0  0  0  0
    0.3368   -3.9756    1.3769 H   0  0  0  0  0  0  0  0  0  0  0  0
    2.8666   -0.5528    2.1316 H   0  0  0  0  0  0  0  0  0  0  0  0
  1  2  1  0
  2  3  1  0
  2  4  1  0
  2  5  1  0
  5  6  1  0
  6  7  1  0
  6  8  1  0
  8  9  1  0
  9 10  1  0
 10 11  1  0
 11 12  1  0
 12 13  1  0
 13 14  1  0
 14 15  1  0
 15 16  1  0
 16 17  2  0
 17 18  1  0
 18 19  1  0
 19 20  3  0
 18 21  2  0
 21 22  1  0
 22 23  1  0
 14 10  1  0
 22 15  2  0
  1 24  1  0
  1 25  1  0
  1 26  1  0
  3 27  1  0
  3 28  1  0
  3 29  1  0
  4 30  1  0
  4 31  1  0
  4 32  1  0
  5 33  1  0
  5 34  1  0
  6 35  1  0
  7 36  1  0
  8 37  1  0
  8 38  1  0
 10 39  1  0
 11 40  1  0
 11 41  1  0
 12 42  1  0
 12 43  1  0
 13 44  1  0
 13 45  1  0
 16 46  1  0
 17 47  1  0
 21 48  1  0
M  CHG  1   2   1
M  END
$$$$
