
     RDKit          3D

 58 61  0  0  0  0  0  0  0  0999 V2000
   -3.7547   -2.2778    1.5463 C   0  0  0  0  0  0  0  0  0  0  0  0
   -2.9432   -1.2764    0.7312 C   0  0  0  0  0  0  0  0  0  0  0  0
   -3.5219    0.0675    0.8375 N   0  0  0  0  0  0  0  0  0  0  0  0
   -2.6018    1.1378    1.2703 C   0  0  0  0  0  0  0  0  0  0  0  0
   -1.8572    1.8139    0.1088 C   0  0  0  0  0  0  0  0  0  0  0  0
   -0.8234    0.9745   -0.5312 N   0  0  0  0  0  0  0  0  0  0  0  0
   -0.0482    0.4420    0.2789 N   0  0  0  0  0  0  0  0  0  0  0  0
    0.9292   -0.1206   -0.4582 N   0  0  0  0  0  0  0  0  0  0  0  0
    2.0273   -0.6493    0.2378 C   0  0  0  0  0  0  0  0  0  0  0  0
    1.8631   -1.3969    1.4038 C   0  0  0  0  0  0  0  0  0  0  0  0
    2.9691   -1.9627    2.0482 C   0  0  0  0  0  0  0  0  0  0  0  0
    4.2633   -1.7859    1.5792 C   0  0  0  0  0  0  0  0  0  0  0  0
    5.2669   -2.3625    2.2482 N   0  0  0  0  0  0  0  0  0  0  0  0
    6.5034   -2.1685    1.7733 C   0  0  0  0  0  0  0  0  0  0  0  0
    6.8305   -1.4339    0.7071 N   0  0  0  0  0  0  0  0  0  0  0  0
    5.8039   -0.8417    0.0545 C   0  0  0  0  0  0  0  0  0  0  0  0
    6.2441    0.0285   -1.0483 C   0  0  0  0  0  0  0  0  0  0  0  0
    7.0011   -0.4900   -2.1144 C   0  0  0  0  0  0  0  0  0  0  0  0
    7.4404    0.3332   -3.1564 C   0  0  0  0  0  0  0  0  0  0  0  0
    7.1328    1.6920   -3.1470 C   0  0  0  0  0  0  0  0  0  0  0  0
    6.3962    2.2228   -2.0905 C   0  0  0  0  0  0  0  0  0  0  0  0
    6.0202    3.9035   -2.0711 Cl  0  0  0  0  0  0  0  0  0  0  0  0
    5.9609    1.4052   -1.0433 C   0  0  0  0  0  0  0  0  0  0  0  0
    4.4569   -1.0099    0.4295 C   0  0  0  0  0  0  0  0  0  0  0  0
    3.3256   -0.4757   -0.2501 C   0  0  0  0  0  0  0  0  0  0  0  0
   -4.7138    0.3750    0.2390 C   0  0  0  0  0  0  0  0  0  0  0  0
   -5.4952    1.3726    0.7770 N   0  0  0  0  0  0  0  0  0  0  0  0
   -6.6718    1.5027    0.0891 C   0  0  0  0  0  0  0  0  0  0  0  0
   -7.6979    2.4952    0.4725 C   0  0  0  0  0  0  0  0  0  0  0  0
   -6.6444    0.5764   -0.9269 C   0  0  0  0  0  0  0  0  0  0  0  0
   -5.4193   -0.1486   -0.8371 C   0  0  0  0  0  0  0  0  0  0  0  0
   -5.0258   -1.2340   -1.7699 C   0  0  0  0  0  0  0  0  0  0  0  0
   -3.7501   -2.0025    2.6089 H   0  0  0  0  0  0  0  0  0  0  0  0
   -4.7978   -2.3281    1.2222 H   0  0  0  0  0  0  0  0  0  0  0  0
   -3.3250   -3.2803    1.4534 H   0  0  0  0  0  0  0  0  0  0  0  0
   -2.8487   -1.5916   -0.3097 H   0  0  0  0  0  0  0  0  0  0  0  0
   -1.9259   -1.2882    1.1403 H   0  0  0  0  0  0  0  0  0  0  0  0
   -3.1578    1.9131    1.8122 H   0  0  0  0  0  0  0  0  0  0  0  0
   -1.8941    0.7447    2.0130 H   0  0  0  0  0  0  0  0  0  0  0  0
   -1.3716    2.7255    0.4791 H   0  0  0  0  0  0  0  0  0  0  0  0
   -2.5655    2.1271   -0.6659 H   0  0  0  0  0  0  0  0  0  0  0  0
    1.1488    0.4049   -1.2972 H   0  0  0  0  0  0  0  0  0  0  0  0
    0.8665   -1.5737    1.8070 H   0  0  0  0  0  0  0  0  0  0  0  0
    2.8113   -2.5640    2.9391 H   0  0  0  0  0  0  0  0  0  0  0  0
    7.3168   -2.6471    2.3084 H   0  0  0  0  0  0  0  0  0  0  0  0
    7.2608   -1.5475   -2.1285 H   0  0  0  0  0  0  0  0  0  0  0  0
    8.0288   -0.0857   -3.9696 H   0  0  0  0  0  0  0  0  0  0  0  0
    7.4772    2.3308   -3.9559 H   0  0  0  0  0  0  0  0  0  0  0  0
    5.4088    1.8465   -0.2107 H   0  0  0  0  0  0  0  0  0  0  0  0
    3.4694    0.0903   -1.1662 H   0  0  0  0  0  0  0  0  0  0  0  0
   -5.2539    1.8879    1.6077 H   0  0  0  0  0  0  0  0  0  0  0  0
   -7.9087    2.4454    1.5457 H   0  0  0  0  0  0  0  0  0  0  0  0
   -8.6345    2.3145   -0.0682 H   0  0  0  0  0  0  0  0  0  0  0  0
   -7.3566    3.5025    0.2327 H   0  0  0  0  0  0  0  0  0  0  0  0
   -7.4288    0.4216   -1.6555 H   0  0  0  0  0  0  0  0  0  0  0  0
   -4.9279   -2.1839   -1.2376 H   0  0  0  0  0  0  0  0  0  0  0  0
   -5.7814   -1.3712   -2.5525 H   0  0  0  0  0  0  0  0  0  0  0  0
   -4.0767   -0.9996   -2.2601 H   0  0  0  0  0  0  0  0  0  0  0  0
  1  2  1  0
  2  3  1  0
  3  4  1  0
  4  5  1  0
  5  6  1  0
  6  7  2  0
  7  8  1  0
  8  9  1  0
  9 10  1  0
 10 11  2  0
 11 12  1  0
 12 13  2  0
 13 14  1  0
 14 15  2  0
 15 16  1  0
 16 17  1  0
 17 18  2  0
 18 19  1  0
 19 20  2  0
 20 21  1  0
 21 22  1  0
 21 23  2  0
 16 24  2  0
 24 25  1  0
  3 26  1  0
 26 27  1  0
 27 28  1  0
 28 29  1  0
 28 30  2  0
 30 31  1  0
 31 32  1  0
 25  9  2  0
 31 26  2  0
 24 12  1  0
 23 17  1  0
  1 33  1  0
  1 34  1  0
  1 35  1  0
  2 36  1  0
  2 37  1  0
  4 38  1  0
  4 39  1  0
  5 40  1  0
  5 41  1  0
  8 42  1  0
 10 43  1  0
 11 44  1  0
 14 45  1  0
 18 46  1  0
 19 47  1  0
 20 48  1  0
 23 49  1  0
 25 50  1  0
 27 51  1  0
 29 52  1  0
 29 53  1  0
 29 54  1  0
 30 55  1  0
 32 56  1  0
 32 57  1  0
 32 58  1  0
M  END
$$$$
