
     RDKit          3D

 34 36  0  0  0  0  0  0  0  0999 V2000
   -2.4637   -2.8506    1.0865 O   0  0  0  0  0  0  0  0  0  0  0  0
   -3.0983   -2.3784    0.1340 N   0  0  0  0  0  0  0  0  0  0  0  0
   -3.5853   -3.0209   -0.8066 O   0  0  0  0  0  0  0  0  0  0  0  0
   -3.3563   -0.9549    0.1551 C   0  0  0  0  0  0  0  0  0  0  0  0
   -4.6378   -0.5464    0.5574 C   0  0  0  0  0  0  0  0  0  0  0  0
   -4.9234    0.8152    0.6396 C   0  0  0  0  0  0  0  0  0  0  0  0
   -3.9304    1.7368    0.3203 C   0  0  0  0  0  0  0  0  0  0  0  0
   -4.1626    3.0787    0.3866 O   0  0  0  0  0  0  0  0  0  0  0  0
   -2.6591    1.3241   -0.0833 C   0  0  0  0  0  0  0  0  0  0  0  0
   -2.3452   -0.0405   -0.1758 C   0  0  0  0  0  0  0  0  0  0  0  0
   -1.0094   -0.4322   -0.6261 C   0  0  0  0  0  0  0  0  0  0  0  0
   -0.6093   -1.2929   -1.6308 C   0  0  0  0  0  0  0  0  0  0  0  0
    0.8062   -1.3196   -1.6425 C   0  0  0  0  0  0  0  0  0  0  0  0
    1.2626   -0.4654   -0.6546 C   0  0  0  0  0  0  0  0  0  0  0  0
    2.6250   -0.1345   -0.2356 C   0  0  0  0  0  0  0  0  0  0  0  0
    3.6257   -1.1159   -0.2498 C   0  0  0  0  0  0  0  0  0  0  0  0
    4.9290   -0.8102    0.1500 C   0  0  0  0  0  0  0  0  0  0  0  0
    5.2381    0.4796    0.5608 C   0  0  0  0  0  0  0  0  0  0  0  0
    6.5219    0.7355    0.9406 O   0  0  0  0  0  0  0  0  0  0  0  0
    4.2647    1.4721    0.5786 C   0  0  0  0  0  0  0  0  0  0  0  0
    2.9599    1.1632    0.1800 C   0  0  0  0  0  0  0  0  0  0  0  0
    0.1417    0.0536   -0.0441 N   0  0  0  0  0  0  0  0  0  0  0  0
   -5.4015   -1.2790    0.8095 H   0  0  0  0  0  0  0  0  0  0  0  0
   -5.9126    1.1364    0.9523 H   0  0  0  0  0  0  0  0  0  0  0  0
   -5.0874    3.2309    0.6443 H   0  0  0  0  0  0  0  0  0  0  0  0
   -1.9237    2.0816   -0.3466 H   0  0  0  0  0  0  0  0  0  0  0  0
   -1.2617   -1.8474   -2.2949 H   0  0  0  0  0  0  0  0  0  0  0  0
    1.4291   -1.8973   -2.3137 H   0  0  0  0  0  0  0  0  0  0  0  0
    3.3969   -2.1325   -0.5609 H   0  0  0  0  0  0  0  0  0  0  0  0
    5.6972   -1.5780    0.1405 H   0  0  0  0  0  0  0  0  0  0  0  0
    6.5923    1.6715    1.1890 H   0  0  0  0  0  0  0  0  0  0  0  0
    4.4990    2.4849    0.8901 H   0  0  0  0  0  0  0  0  0  0  0  0
    2.2152    1.9548    0.1775 H   0  0  0  0  0  0  0  0  0  0  0  0
    0.1632    0.6776    0.7505 H   0  0  0  0  0  0  0  0  0  0  0  0
  1  2  2  0
  2  3  1  0
  2  4  1  0
  4  5  1  0
  5  6  2  0
  6  7  1  0
  7  8  1  0
  7  9  2  0
  9 10  1  0
 10 11  1  0
 11 12  2  0
 12 13  1  0
 13 14  2  0
 14 15  1  0
 15 16  1  0
 16 17  2  0
 17 18  1  0
 18 19  1  0
 18 20  2  0
 20 21  1  0
 14 22  1  0
 10  4  2  0
 22 11  1  0
 21 15  2  0
  5 23  1  0
  6 24  1  0
  8 25  1  0
  9 26  1  0
 12 27  1  0
 13 28  1  0
 16 29  1  0
 17 30  1  0
 19 31  1  0
 20 32  1  0
 21 33  1  0
 22 34  1  0
M  CHG  2   2   1   3  -1
M  END
$$$$
