
     RDKit          3D

 47 50  0  0  0  0  0  0  0  0999 V2000
    6.2349   -2.0063   -2.0106 C   0  0  0  0  0  0  0  0  0  0  0  0
    5.8049   -1.3081   -0.7752 C   0  0  0  0  0  0  0  0  0  0  0  0
    6.2716   -1.3920    0.5191 C   0  0  0  0  0  0  0  0  0  0  0  0
    5.5013   -0.5092    1.3261 C   0  0  0  0  0  0  0  0  0  0  0  0
    5.6665   -0.2862    2.7864 C   0  0  0  0  0  0  0  0  0  0  0  0
    4.5773    0.0941    0.4867 C   0  0  0  0  0  0  0  0  0  0  0  0
    3.5186    1.1134    0.7549 C   0  0  0  0  0  0  0  0  0  0  0  0
    2.2238    0.6056    0.2789 N   0  0  0  0  0  0  0  0  0  0  0  0
    1.3590    1.4999    0.2455 N   0  0  0  0  0  0  0  0  0  0  0  0
    0.2378    0.9019   -0.1985 N   0  0  0  0  0  0  0  0  0  0  0  0
   -1.0007    1.5298    0.0174 C   0  0  0  0  0  0  0  0  0  0  0  0
   -1.1169    2.8835    0.3303 C   0  0  0  0  0  0  0  0  0  0  0  0
   -2.3756    3.4791    0.4784 C   0  0  0  0  0  0  0  0  0  0  0  0
   -3.5516    2.7671    0.2951 C   0  0  0  0  0  0  0  0  0  0  0  0
   -4.7171    3.4008    0.4649 N   0  0  0  0  0  0  0  0  0  0  0  0
   -5.8302    2.6814    0.2806 C   0  0  0  0  0  0  0  0  0  0  0  0
   -5.8869    1.3936   -0.0659 N   0  0  0  0  0  0  0  0  0  0  0  0
   -4.6994    0.7740   -0.2500 C   0  0  0  0  0  0  0  0  0  0  0  0
   -4.8256   -0.6336   -0.6597 C   0  0  0  0  0  0  0  0  0  0  0  0
   -5.3426   -1.5915    0.2276 C   0  0  0  0  0  0  0  0  0  0  0  0
   -5.4593   -2.9309   -0.1513 C   0  0  0  0  0  0  0  0  0  0  0  0
   -5.0682   -3.3308   -1.4273 C   0  0  0  0  0  0  0  0  0  0  0  0
   -4.5670   -2.3927   -2.3271 C   0  0  0  0  0  0  0  0  0  0  0  0
   -4.4503   -1.0533   -1.9475 C   0  0  0  0  0  0  0  0  0  0  0  0
   -3.4627    1.4174   -0.0647 C   0  0  0  0  0  0  0  0  0  0  0  0
   -2.1822    0.8132   -0.2029 C   0  0  0  0  0  0  0  0  0  0  0  0
    4.7761   -0.4018   -0.7806 N   0  0  0  0  0  0  0  0  0  0  0  0
    5.4215   -2.6227   -2.4062 H   0  0  0  0  0  0  0  0  0  0  0  0
    7.0913   -2.6594   -1.8146 H   0  0  0  0  0  0  0  0  0  0  0  0
    6.5285   -1.2841   -2.7791 H   0  0  0  0  0  0  0  0  0  0  0  0
    7.0841   -2.0257    0.8530 H   0  0  0  0  0  0  0  0  0  0  0  0
    5.8969    0.7646    2.9893 H   0  0  0  0  0  0  0  0  0  0  0  0
    4.7481   -0.5505    3.3202 H   0  0  0  0  0  0  0  0  0  0  0  0
    6.4809   -0.8957    3.1911 H   0  0  0  0  0  0  0  0  0  0  0  0
    3.7829    2.0468    0.2415 H   0  0  0  0  0  0  0  0  0  0  0  0
    3.4549    1.3256    1.8283 H   0  0  0  0  0  0  0  0  0  0  0  0
    0.2375   -0.1093   -0.1076 H   0  0  0  0  0  0  0  0  0  0  0  0
   -0.2302    3.4973    0.4694 H   0  0  0  0  0  0  0  0  0  0  0  0
   -2.4342    4.5333    0.7412 H   0  0  0  0  0  0  0  0  0  0  0  0
   -6.7752    3.1939    0.4248 H   0  0  0  0  0  0  0  0  0  0  0  0
   -5.6628   -1.2895    1.2232 H   0  0  0  0  0  0  0  0  0  0  0  0
   -5.8625   -3.6588    0.5481 H   0  0  0  0  0  0  0  0  0  0  0  0
   -5.1643   -4.3721   -1.7238 H   0  0  0  0  0  0  0  0  0  0  0  0
   -4.2748   -2.7011   -3.3277 H   0  0  0  0  0  0  0  0  0  0  0  0
   -4.0722   -0.3304   -2.6680 H   0  0  0  0  0  0  0  0  0  0  0  0
   -2.1136   -0.2370   -0.4792 H   0  0  0  0  0  0  0  0  0  0  0  0
    4.2275   -0.1436   -1.5911 H   0  0  0  0  0  0  0  0  0  0  0  0
  1  2  1  0
  2  3  2  0
  3  4  1  0
  4  5  1  0
  4  6  2  0
  6  7  1  0
  7  8  1  0
  8  9  2  0
  9 10  1  0
 10 11  1  0
 11 12  1  0
 12 13  2  0
 13 14  1  0
 14 15  2  0
 15 16  1  0
 16 17  2  0
 17 18  1  0
 18 19  1  0
 19 20  2  0
 20 21  1  0
 21 22  2  0
 22 23  1  0
 23 24  2  0
 18 25  2  0
 25 26  1  0
  6 27  1  0
 27  2  1  0
 26 11  2  0
 25 14  1  0
 24 19  1  0
  1 28  1  0
  1 29  1  0
  1 30  1  0
  3 31  1  0
  5 32  1  0
  5 33  1  0
  5 34  1  0
  7 35  1  0
  7 36  1  0
 10 37  1  0
 12 38  1  0
 13 39  1  0
 16 40  1  0
 20 41  1  0
 21 42  1  0
 22 43  1  0
 23 44  1  0
 24 45  1  0
 26 46  1  0
 27 47  1  0
M  END
$$$$
