
     RDKit          3D

 43 46  0  0  0  0  0  0  0  0999 V2000
    2.1962   -2.6965    1.7318 C   0  0  0  0  0  0  0  0  0  0  0  0
    2.2934   -1.8397    0.5036 C   0  0  0  0  0  0  0  0  0  0  0  0
    2.5612   -2.4150   -0.7445 C   0  0  0  0  0  0  0  0  0  0  0  0
    2.6116   -1.6235   -1.8922 C   0  0  0  0  0  0  0  0  0  0  0  0
    2.3738   -0.2521   -1.8063 C   0  0  0  0  0  0  0  0  0  0  0  0
    2.0763    0.3319   -0.5713 C   0  0  0  0  0  0  0  0  0  0  0  0
    1.8067    1.7646   -0.4987 C   0  0  0  0  0  0  0  0  0  0  0  0
    0.6678    2.3860   -0.1463 C   0  0  0  0  0  0  0  0  0  0  0  0
    0.7544    3.8837    0.0306 C   0  0  0  0  0  0  0  0  0  0  0  0
    1.6982    4.5955   -0.2603 O   0  0  0  0  0  0  0  0  0  0  0  0
   -0.4459    4.2404    0.6059 N   0  0  0  0  0  0  0  0  0  0  0  0
   -0.8377    5.5729    0.9731 C   0  0  0  0  0  0  0  0  0  0  0  0
   -1.2991    3.1386    0.7374 C   0  0  0  0  0  0  0  0  0  0  0  0
   -2.5352    3.2385    1.2321 N   0  0  0  0  0  0  0  0  0  0  0  0
   -3.2064    2.0882    1.2001 C   0  0  0  0  0  0  0  0  0  0  0  0
   -2.7561    0.9280    0.6994 N   0  0  0  0  0  0  0  0  0  0  0  0
   -1.4915    0.8611    0.2172 C   0  0  0  0  0  0  0  0  0  0  0  0
   -1.1102   -0.3105   -0.4562 N   0  0  0  0  0  0  0  0  0  0  0  0
   -1.5058   -1.6281   -0.1226 C   0  0  0  0  0  0  0  0  0  0  0  0
   -1.2331   -2.6349   -1.0516 C   0  0  0  0  0  0  0  0  0  0  0  0
   -1.5817   -3.9536   -0.7657 C   0  0  0  0  0  0  0  0  0  0  0  0
   -2.1973   -4.2417    0.4431 C   0  0  0  0  0  0  0  0  0  0  0  0
   -2.4329   -3.1937    1.3138 C   0  0  0  0  0  0  0  0  0  0  0  0
   -2.0942   -1.9109    1.0591 N   0  0  0  0  0  0  0  0  0  0  0  0
   -0.6915    1.9845    0.2475 C   0  0  0  0  0  0  0  0  0  0  0  0
    2.0516   -0.4619    0.5827 C   0  0  0  0  0  0  0  0  0  0  0  0
    2.8572   -3.5669    1.6545 H   0  0  0  0  0  0  0  0  0  0  0  0
    1.1674   -3.0444    1.8647 H   0  0  0  0  0  0  0  0  0  0  0  0
    2.4987   -2.1372    2.6229 H   0  0  0  0  0  0  0  0  0  0  0  0
    2.7370   -3.4855   -0.8273 H   0  0  0  0  0  0  0  0  0  0  0  0
    2.8358   -2.0771   -2.8549 H   0  0  0  0  0  0  0  0  0  0  0  0
    2.4149    0.3534   -2.7102 H   0  0  0  0  0  0  0  0  0  0  0  0
    2.6891    2.3674   -0.7241 H   0  0  0  0  0  0  0  0  0  0  0  0
   -0.0114    6.2704    0.8105 H   0  0  0  0  0  0  0  0  0  0  0  0
   -1.1173    5.5927    2.0304 H   0  0  0  0  0  0  0  0  0  0  0  0
   -1.6880    5.8820    0.3582 H   0  0  0  0  0  0  0  0  0  0  0  0
   -4.2147    2.0869    1.5983 H   0  0  0  0  0  0  0  0  0  0  0  0
   -0.1285   -0.3331   -0.6856 H   0  0  0  0  0  0  0  0  0  0  0  0
   -0.7567   -2.3940   -1.9964 H   0  0  0  0  0  0  0  0  0  0  0  0
   -1.3784   -4.7421   -1.4839 H   0  0  0  0  0  0  0  0  0  0  0  0
   -2.4893   -5.2533    0.7007 H   0  0  0  0  0  0  0  0  0  0  0  0
   -2.9162   -3.3587    2.2728 H   0  0  0  0  0  0  0  0  0  0  0  0
    1.8279   -0.0122    1.5494 H   0  0  0  0  0  0  0  0  0  0  0  0
  1  2  1  0
  2  3  2  0
  3  4  1  0
  4  5  2  0
  5  6  1  0
  6  7  1  0
  7  8  2  3
  8  9  1  0
  9 10  2  0
  9 11  1  0
 11 12  1  0
 11 13  1  0
 13 14  2  0
 14 15  1  0
 15 16  2  0
 16 17  1  0
 17 18  1  0
 18 19  1  0
 19 20  2  0
 20 21  1  0
 21 22  2  0
 22 23  1  0
 23 24  2  0
 17 25  2  0
  6 26  2  0
 26  2  1  0
 25  8  1  0
 25 13  1  0
 24 19  1  0
  1 27  1  0
  1 28  1  0
  1 29  1  0
  3 30  1  0
  4 31  1  0
  5 32  1  0
  7 33  1  0
 12 34  1  0
 12 35  1  0
 12 36  1  0
 15 37  1  0
 18 38  1  0
 20 39  1  0
 21 40  1  0
 22 41  1  0
 23 42  1  0
 26 43  1  0
M  END
$$$$
