
     RDKit          3D

 38 40  0  0  0  0  0  0  0  0999 V2000
    3.0988   -0.1850   -2.4914 C   0  0  0  0  0  0  0  0  0  0  0  0
    2.1694   -0.3797   -1.3690 N   0  0  0  0  0  0  0  0  0  0  0  0
    2.8493   -0.4512   -0.1218 C   0  0  0  0  0  0  0  0  0  0  0  0
    3.6728   -1.5543    0.1642 C   0  0  0  0  0  0  0  0  0  0  0  0
    4.3446   -1.6526    1.3848 C   0  0  0  0  0  0  0  0  0  0  0  0
    4.1983   -0.6459    2.3319 C   0  0  0  0  0  0  0  0  0  0  0  0
    4.8497   -0.7596    3.4987 F   0  0  0  0  0  0  0  0  0  0  0  0
    3.3889    0.4561    2.0716 C   0  0  0  0  0  0  0  0  0  0  0  0
    3.2047    1.7059    3.2415 Cl  0  0  0  0  0  0  0  0  0  0  0  0
    2.7170    0.5546    0.8515 C   0  0  0  0  0  0  0  0  0  0  0  0
    0.9037    0.1221   -1.4943 C   0  0  0  0  0  0  0  0  0  0  0  0
    0.2768    0.8590   -2.4778 C   0  0  0  0  0  0  0  0  0  0  0  0
   -1.0657    1.0714   -2.0742 C   0  0  0  0  0  0  0  0  0  0  0  0
   -1.2526    0.4360   -0.8599 C   0  0  0  0  0  0  0  0  0  0  0  0
   -2.4324    0.3288   -0.0013 C   0  0  0  0  0  0  0  0  0  0  0  0
   -2.3162    0.6576    1.3582 C   0  0  0  0  0  0  0  0  0  0  0  0
   -3.4241    0.5894    2.2052 C   0  0  0  0  0  0  0  0  0  0  0  0
   -3.2351    0.9250    3.5129 O   0  0  0  0  0  0  0  0  0  0  0  0
   -4.6735    0.1977    1.7332 C   0  0  0  0  0  0  0  0  0  0  0  0
   -4.8165   -0.1365    0.3879 C   0  0  0  0  0  0  0  0  0  0  0  0
   -3.6978   -0.0695   -0.4578 C   0  0  0  0  0  0  0  0  0  0  0  0
   -3.8917   -0.4729   -1.8334 N   0  0  0  0  0  0  0  0  0  0  0  0
   -3.5179   -1.6111   -2.1459 O   0  0  0  0  0  0  0  0  0  0  0  0
   -4.4691    0.3329   -2.5764 O   0  0  0  0  0  0  0  0  0  0  0  0
   -0.0483   -0.1516   -0.5400 N   0  0  0  0  0  0  0  0  0  0  0  0
    3.9797   -0.8334   -2.4232 H   0  0  0  0  0  0  0  0  0  0  0  0
    3.4424    0.8556   -2.5350 H   0  0  0  0  0  0  0  0  0  0  0  0
    2.6159   -0.4311   -3.4447 H   0  0  0  0  0  0  0  0  0  0  0  0
    3.7749   -2.3573   -0.5630 H   0  0  0  0  0  0  0  0  0  0  0  0
    4.9746   -2.5093    1.6031 H   0  0  0  0  0  0  0  0  0  0  0  0
    2.1036    1.4292    0.6477 H   0  0  0  0  0  0  0  0  0  0  0  0
    0.7311    1.2246   -3.3885 H   0  0  0  0  0  0  0  0  0  0  0  0
   -1.8123    1.6339   -2.6221 H   0  0  0  0  0  0  0  0  0  0  0  0
   -1.3655    0.9912    1.7699 H   0  0  0  0  0  0  0  0  0  0  0  0
   -4.0810    0.8600    3.9869 H   0  0  0  0  0  0  0  0  0  0  0  0
   -5.5351    0.1459    2.3924 H   0  0  0  0  0  0  0  0  0  0  0  0
   -5.7852   -0.4507    0.0053 H   0  0  0  0  0  0  0  0  0  0  0  0
    0.1240   -0.7254    0.2725 H   0  0  0  0  0  0  0  0  0  0  0  0
  1  2  1  0
  2  3  1  0
  3  4  1  0
  4  5  2  0
  5  6  1  0
  6  7  1  0
  6  8  2  0
  8  9  1  0
  8 10  1  0
  2 11  1  0
 11 12  2  0
 12 13  1  0
 13 14  2  0
 14 15  1  0
 15 16  1  0
 16 17  2  0
 17 18  1  0
 17 19  1  0
 19 20  2  0
 20 21  1  0
 21 22  1  0
 22 23  2  0
 22 24  1  0
 14 25  1  0
 10  3  2  0
 25 11  1  0
 21 15  2  0
  1 26  1  0
  1 27  1  0
  1 28  1  0
  4 29  1  0
  5 30  1  0
 10 31  1  0
 12 32  1  0
 13 33  1  0
 16 34  1  0
 18 35  1  0
 19 36  1  0
 20 37  1  0
 25 38  1  0
M  CHG  2  22   1  24  -1
M  END
$$$$
