
     RDKit          3D

 43 45  0  0  0  0  0  0  0  0999 V2000
    7.3705    0.9277   -0.1152 C   0  0  0  0  0  0  0  0  0  0  0  0
    6.0103    1.2992   -0.3070 O   0  0  0  0  0  0  0  0  0  0  0  0
    5.1066    0.3947    0.0713 C   0  0  0  0  0  0  0  0  0  0  0  0
    5.1683   -0.8655    0.6285 C   0  0  0  0  0  0  0  0  0  0  0  0
    3.8366   -1.3184    0.8130 C   0  0  0  0  0  0  0  0  0  0  0  0
    2.9823   -0.3414    0.3408 C   0  0  0  0  0  0  0  0  0  0  0  0
    1.6173   -0.2525    0.2924 N   0  0  0  0  0  0  0  0  0  0  0  0
    0.9926    0.2722   -0.9532 C   0  0  0  0  0  0  0  0  0  0  0  0
   -0.4946    0.6351   -0.7313 C   0  0  0  0  0  0  0  0  0  0  0  0
   -1.2422   -0.5337   -0.1950 N   0  0  0  0  0  0  0  0  0  0  0  0
   -2.6287   -0.2641   -0.0678 C   0  0  0  0  0  0  0  0  0  0  0  0
   -3.1660    0.7155    0.7718 C   0  0  0  0  0  0  0  0  0  0  0  0
   -4.5556    0.9132    0.8324 C   0  0  0  0  0  0  0  0  0  0  0  0
   -5.0659    1.9679    1.7404 C   0  0  0  0  0  0  0  0  0  0  0  0
   -4.3862    2.6922    2.4433 O   0  0  0  0  0  0  0  0  0  0  0  0
   -6.4067    2.0664    1.7257 O   0  0  0  0  0  0  0  0  0  0  0  0
   -5.4197    0.1302    0.0518 C   0  0  0  0  0  0  0  0  0  0  0  0
   -4.8913   -0.8470   -0.7864 C   0  0  0  0  0  0  0  0  0  0  0  0
   -5.7112   -1.6216   -1.5560 O   0  0  0  0  0  0  0  0  0  0  0  0
   -3.5132   -1.0373   -0.8415 C   0  0  0  0  0  0  0  0  0  0  0  0
   -2.9663   -1.9941   -1.6593 O   0  0  0  0  0  0  0  0  0  0  0  0
   -0.6424   -0.9922    1.0875 C   0  0  0  0  0  0  0  0  0  0  0  0
    0.8406   -1.3761    0.8822 C   0  0  0  0  0  0  0  0  0  0  0  0
    3.7774    0.6977   -0.0792 N   0  0  0  0  0  0  0  0  0  0  0  0
    7.6192    0.0370   -0.7022 H   0  0  0  0  0  0  0  0  0  0  0  0
    7.9993    1.7518   -0.4647 H   0  0  0  0  0  0  0  0  0  0  0  0
    7.5848    0.7621    0.9461 H   0  0  0  0  0  0  0  0  0  0  0  0
    6.0676   -1.4069    0.8871 H   0  0  0  0  0  0  0  0  0  0  0  0
    3.5443   -2.2695    1.2356 H   0  0  0  0  0  0  0  0  0  0  0  0
    1.0725   -0.4888   -1.7402 H   0  0  0  0  0  0  0  0  0  0  0  0
    1.5052    1.1734   -1.3069 H   0  0  0  0  0  0  0  0  0  0  0  0
   -0.5524    1.4852   -0.0390 H   0  0  0  0  0  0  0  0  0  0  0  0
   -0.9267    0.9460   -1.6905 H   0  0  0  0  0  0  0  0  0  0  0  0
   -2.5121    1.3319    1.3842 H   0  0  0  0  0  0  0  0  0  0  0  0
   -6.5964    2.7888    2.3614 H   0  0  0  0  0  0  0  0  0  0  0  0
   -6.4927    0.2874    0.1025 H   0  0  0  0  0  0  0  0  0  0  0  0
   -6.6344   -1.3694   -1.4017 H   0  0  0  0  0  0  0  0  0  0  0  0
   -2.0062   -1.9022   -1.4896 H   0  0  0  0  0  0  0  0  0  0  0  0
   -1.1845   -1.8701    1.4601 H   0  0  0  0  0  0  0  0  0  0  0  0
   -0.7033   -0.2041    1.8494 H   0  0  0  0  0  0  0  0  0  0  0  0
    0.9073   -2.2501    0.2214 H   0  0  0  0  0  0  0  0  0  0  0  0
    1.2518   -1.6541    1.8601 H   0  0  0  0  0  0  0  0  0  0  0  0
    3.4443    1.5837   -0.4208 H   0  0  0  0  0  0  0  0  0  0  0  0
  1  2  1  0
  2  3  1  0
  3  4  2  0
  4  5  1  0
  5  6  2  0
  6  7  1  0
  7  8  1  0
  8  9  1  0
  9 10  1  0
 10 11  1  0
 11 12  1  0
 12 13  2  0
 13 14  1  0
 14 15  2  0
 14 16  1  0
 13 17  1  0
 17 18  2  0
 18 19  1  0
 18 20  1  0
 20 21  1  0
 10 22  1  0
 22 23  1  0
  6 24  1  0
 24  3  1  0
 23  7  1  0
 20 11  2  0
  1 25  1  0
  1 26  1  0
  1 27  1  0
  4 28  1  0
  5 29  1  0
  8 30  1  0
  8 31  1  0
  9 32  1  0
  9 33  1  0
 12 34  1  0
 16 35  1  0
 17 36  1  0
 19 37  1  0
 21 38  1  0
 22 39  1  0
 22 40  1  0
 23 41  1  0
 23 42  1  0
 24 43  1  0
M  END
$$$$
