
     RDKit          3D

 28 29  0  0  0  0  0  0  0  0999 V2000
   -5.0279    1.4940    0.1015 O   0  0  0  0  0  0  0  0  0  0  0  0
   -3.8015    1.6656    0.1939 N   0  0  0  0  0  0  0  0  0  0  0  0
   -3.2555    2.7710    0.3110 O   0  0  0  0  0  0  0  0  0  0  0  0
   -2.9493    0.4748    0.1609 C   0  0  0  0  0  0  0  0  0  0  0  0
   -1.5560    0.6367    0.2739 C   0  0  0  0  0  0  0  0  0  0  0  0
   -0.6994   -0.4775    0.2507 C   0  0  0  0  0  0  0  0  0  0  0  0
    0.7593   -0.3166    0.3707 C   0  0  0  0  0  0  0  0  0  0  0  0
    1.4841   -1.0173    1.3491 C   0  0  0  0  0  0  0  0  0  0  0  0
    2.8697   -0.8707    1.4686 C   0  0  0  0  0  0  0  0  0  0  0  0
    3.5641   -0.0206    0.6117 C   0  0  0  0  0  0  0  0  0  0  0  0
    4.9140    0.0415    0.8218 O   0  0  0  0  0  0  0  0  0  0  0  0
    2.8618    0.6870   -0.3703 C   0  0  0  0  0  0  0  0  0  0  0  0
    3.5563    1.5888   -1.2922 N   0  0  0  0  0  0  0  0  0  0  0  0
    4.7877    1.6931   -1.1712 O   0  0  0  0  0  0  0  0  0  0  0  0
    2.8813    2.1940   -2.1359 O   0  0  0  0  0  0  0  0  0  0  0  0
    1.4673    0.5402   -0.4897 C   0  0  0  0  0  0  0  0  0  0  0  0
   -1.2755   -1.7512    0.1110 C   0  0  0  0  0  0  0  0  0  0  0  0
   -2.6600   -1.9122   -0.0024 C   0  0  0  0  0  0  0  0  0  0  0  0
   -3.5020   -0.8034    0.0224 C   0  0  0  0  0  0  0  0  0  0  0  0
   -4.8355   -1.0828   -0.0954 O   0  0  0  0  0  0  0  0  0  0  0  0
   -1.1284    1.6319    0.3936 H   0  0  0  0  0  0  0  0  0  0  0  0
    0.9702   -1.6827    2.0420 H   0  0  0  0  0  0  0  0  0  0  0  0
    3.4077   -1.4223    2.2370 H   0  0  0  0  0  0  0  0  0  0  0  0
    5.3267    0.6562    0.1785 H   0  0  0  0  0  0  0  0  0  0  0  0
    0.9238    1.0830   -1.2627 H   0  0  0  0  0  0  0  0  0  0  0  0
   -0.6446   -2.6387    0.0777 H   0  0  0  0  0  0  0  0  0  0  0  0
   -3.0813   -2.9094   -0.1128 H   0  0  0  0  0  0  0  0  0  0  0  0
   -5.3571   -0.2527   -0.0659 H   0  0  0  0  0  0  0  0  0  0  0  0
  1  2  2  0
  2  3  1  0
  2  4  1  0
  4  5  1  0
  5  6  2  0
  6  7  1  0
  7  8  1  0
  8  9  2  0
  9 10  1  0
 10 11  1  0
 10 12  2  0
 12 13  1  0
 13 14  2  0
 13 15  1  0
 12 16  1  0
  6 17  1  0
 17 18  2  0
 18 19  1  0
 19 20  1  0
 19  4  2  0
 16  7  2  0
  5 21  1  0
  8 22  1  0
  9 23  1  0
 11 24  1  0
 16 25  1  0
 17 26  1  0
 18 27  1  0
 20 28  1  0
M  CHG  4   2   1   3  -1  13   1  15  -1
M  END
$$$$
