
     RDKit          3D

 36 38  0  0  0  0  0  0  0  0999 V2000
    5.5102   -2.5911    1.0024 N   0  0  0  0  0  0  0  0  0  0  0  0
    4.4506   -2.1327    0.8825 C   0  0  0  0  0  0  0  0  0  0  0  0
    3.1609   -1.5557    0.7160 C   0  0  0  0  0  0  0  0  0  0  0  0
    2.1724   -1.8637    1.6956 C   0  0  0  0  0  0  0  0  0  0  0  0
    1.3238   -2.0744    2.4591 N   0  0  0  0  0  0  0  0  0  0  0  0
    2.8875   -0.7411   -0.3395 C   0  0  0  0  0  0  0  0  0  0  0  0
    3.7974   -0.3968   -1.3380 N   0  0  0  0  0  0  0  0  0  0  0  0
    1.5382   -0.1475   -0.4905 C   0  0  0  0  0  0  0  0  0  0  0  0
    0.7197   -0.8024   -1.4640 C   0  0  0  0  0  0  0  0  0  0  0  0
    0.1071   -1.3363   -2.2912 N   0  0  0  0  0  0  0  0  0  0  0  0
    1.1348    0.9637    0.1638 C   0  0  0  0  0  0  0  0  0  0  0  0
    2.1265    1.8246    0.9110 C   0  0  0  0  0  0  0  0  0  0  0  0
    3.2534    1.5326    1.2573 O   0  0  0  0  0  0  0  0  0  0  0  0
    1.4886    3.0282    1.0902 N   0  0  0  0  0  0  0  0  0  0  0  0
    0.1701    2.9758    0.6655 C   0  0  0  0  0  0  0  0  0  0  0  0
   -0.6651    4.0007    0.8209 N   0  0  0  0  0  0  0  0  0  0  0  0
   -1.9211    3.7133    0.4682 C   0  0  0  0  0  0  0  0  0  0  0  0
   -2.3676    2.5123    0.0572 N   0  0  0  0  0  0  0  0  0  0  0  0
   -1.4706    1.4947   -0.0423 C   0  0  0  0  0  0  0  0  0  0  0  0
   -2.0909    0.1789   -0.2369 C   0  0  0  0  0  0  0  0  0  0  0  0
   -2.9656   -0.0510   -1.3125 C   0  0  0  0  0  0  0  0  0  0  0  0
   -3.5813   -1.2935   -1.4851 C   0  0  0  0  0  0  0  0  0  0  0  0
   -3.3378   -2.3151   -0.5771 C   0  0  0  0  0  0  0  0  0  0  0  0
   -3.9606   -3.5102   -0.7814 O   0  0  0  0  0  0  0  0  0  0  0  0
   -2.4942   -2.1140    0.5087 C   0  0  0  0  0  0  0  0  0  0  0  0
   -1.8809   -0.8690    0.6810 C   0  0  0  0  0  0  0  0  0  0  0  0
   -0.1312    1.7163    0.1694 C   0  0  0  0  0  0  0  0  0  0  0  0
    3.6577    0.5297   -1.7409 H   0  0  0  0  0  0  0  0  0  0  0  0
    4.7815   -0.5344   -1.0994 H   0  0  0  0  0  0  0  0  0  0  0  0
    1.8823    3.8262    1.5647 H   0  0  0  0  0  0  0  0  0  0  0  0
   -2.6538    4.5106    0.5384 H   0  0  0  0  0  0  0  0  0  0  0  0
   -3.1723    0.7425   -2.0281 H   0  0  0  0  0  0  0  0  0  0  0  0
   -4.2471   -1.4611   -2.3268 H   0  0  0  0  0  0  0  0  0  0  0  0
   -3.6613   -4.1359   -0.1019 H   0  0  0  0  0  0  0  0  0  0  0  0
   -2.3097   -2.9014    1.2332 H   0  0  0  0  0  0  0  0  0  0  0  0
   -1.2514   -0.7228    1.5571 H   0  0  0  0  0  0  0  0  0  0  0  0
  1  2  3  0
  2  3  1  0
  3  4  1  0
  4  5  3  0
  3  6  2  3
  6  7  1  0
  6  8  1  0
  8  9  1  0
  9 10  3  0
  8 11  2  3
 11 12  1  0
 12 13  2  0
 12 14  1  0
 14 15  1  0
 15 16  2  0
 16 17  1  0
 17 18  2  0
 18 19  1  0
 19 20  1  0
 20 21  1  0
 21 22  2  0
 22 23  1  0
 23 24  1  0
 23 25  2  0
 25 26  1  0
 19 27  2  0
 27 11  1  0
 27 15  1  0
 26 20  2  0
  7 28  1  0
  7 29  1  0
 14 30  1  0
 17 31  1  0
 21 32  1  0
 22 33  1  0
 24 34  1  0
 25 35  1  0
 26 36  1  0
M  END
$$$$
