
     RDKit          3D

 32 32  0  0  0  0  0  0  0  0999 V2000
    0.7396    1.0386   -2.7403 N   0  0  0  0  0  0  0  0  0  0  0  0
    0.5151    0.8186   -1.6235 C   0  0  0  0  0  0  0  0  0  0  0  0
    0.2045    0.5747   -0.2473 C   0  0  0  0  0  0  0  0  0  0  0  0
    1.1545    0.3644    0.6857 C   0  0  0  0  0  0  0  0  0  0  0  0
    2.5957    0.3204    0.4222 C   0  0  0  0  0  0  0  0  0  0  0  0
    3.4050    1.3904    0.8216 C   0  0  0  0  0  0  0  0  0  0  0  0
    4.7797    1.3615    0.5782 C   0  0  0  0  0  0  0  0  0  0  0  0
    5.3515    0.2616   -0.0612 C   0  0  0  0  0  0  0  0  0  0  0  0
    4.5462   -0.8062   -0.4541 C   0  0  0  0  0  0  0  0  0  0  0  0
    5.2560   -2.1656   -1.2347 Cl  0  0  0  0  0  0  0  0  0  0  0  0
    3.1721   -0.7842   -0.2157 C   0  0  0  0  0  0  0  0  0  0  0  0
   -1.2186    0.5845    0.1304 C   0  0  0  0  0  0  0  0  0  0  0  0
   -1.7362    1.8399    0.4244 N   0  0  0  0  0  0  0  0  0  0  0  0
   -1.9226   -0.5769    0.2243 C   0  0  0  0  0  0  0  0  0  0  0  0
   -1.2992   -1.8500   -0.0045 C   0  0  0  0  0  0  0  0  0  0  0  0
   -0.8005   -2.8847   -0.1635 N   0  0  0  0  0  0  0  0  0  0  0  0
   -3.3564   -0.6143    0.5981 C   0  0  0  0  0  0  0  0  0  0  0  0
   -3.6284   -0.2834    1.9245 N   0  0  0  0  0  0  0  0  0  0  0  0
   -4.3113   -0.9112   -0.3251 C   0  0  0  0  0  0  0  0  0  0  0  0
   -3.9995   -1.1730   -1.6904 C   0  0  0  0  0  0  0  0  0  0  0  0
   -3.7230   -1.3704   -2.7990 N   0  0  0  0  0  0  0  0  0  0  0  0
   -5.6879   -0.9347    0.0383 C   0  0  0  0  0  0  0  0  0  0  0  0
   -6.7989   -0.9544    0.3725 N   0  0  0  0  0  0  0  0  0  0  0  0
    0.8828    0.2208    1.7297 H   0  0  0  0  0  0  0  0  0  0  0  0
    2.9731    2.2563    1.3193 H   0  0  0  0  0  0  0  0  0  0  0  0
    5.4049    2.1966    0.8848 H   0  0  0  0  0  0  0  0  0  0  0  0
    6.4216    0.2424   -0.2505 H   0  0  0  0  0  0  0  0  0  0  0  0
    2.5590   -1.6278   -0.5259 H   0  0  0  0  0  0  0  0  0  0  0  0
   -1.3679    2.6040   -0.1413 H   0  0  0  0  0  0  0  0  0  0  0  0
   -2.7474    1.8845    0.5400 H   0  0  0  0  0  0  0  0  0  0  0  0
   -2.8512   -0.4062    2.5744 H   0  0  0  0  0  0  0  0  0  0  0  0
   -4.5123   -0.6165    2.3122 H   0  0  0  0  0  0  0  0  0  0  0  0
  1  2  3  0
  2  3  1  0
  3  4  2  3
  4  5  1  0
  5  6  2  0
  6  7  1  0
  7  8  2  0
  8  9  1  0
  9 10  1  0
  9 11  2  0
  3 12  1  0
 12 13  1  0
 12 14  2  3
 14 15  1  0
 15 16  3  0
 14 17  1  0
 17 18  1  0
 17 19  2  3
 19 20  1  0
 20 21  3  0
 19 22  1  0
 22 23  3  0
 11  5  1  0
  4 24  1  0
  6 25  1  0
  7 26  1  0
  8 27  1  0
 11 28  1  0
 13 29  1  0
 13 30  1  0
 18 31  1  0
 18 32  1  0
M  END
$$$$
