
     RDKit          3D

 30 30  0  0  0  0  0  0  0  0999 V2000
    4.8248    1.3626   -0.5650 C   0  0  0  0  0  0  0  0  0  0  0  0
    3.5233    1.7135   -0.1084 O   0  0  0  0  0  0  0  0  0  0  0  0
    2.6306    0.7238   -0.0917 C   0  0  0  0  0  0  0  0  0  0  0  0
    2.6583   -0.6145   -0.4256 C   0  0  0  0  0  0  0  0  0  0  0  0
    1.3640   -1.1624   -0.1849 C   0  0  0  0  0  0  0  0  0  0  0  0
    0.9662   -2.5811   -0.3934 C   0  0  0  0  0  0  0  0  0  0  0  0
    0.5743   -0.1224    0.2795 C   0  0  0  0  0  0  0  0  0  0  0  0
   -0.7774   -0.0052    0.6880 C   0  0  0  0  0  0  0  0  0  0  0  0
   -1.8135   -0.2722   -0.1370 C   0  0  0  0  0  0  0  0  0  0  0  0
   -1.6907   -0.6626   -1.4582 N   0  0  0  0  0  0  0  0  0  0  0  0
   -3.1804   -0.1216    0.3769 C   0  0  0  0  0  0  0  0  0  0  0  0
   -3.8365   -1.3352    0.7602 C   0  0  0  0  0  0  0  0  0  0  0  0
   -4.3908   -2.2986    1.0910 N   0  0  0  0  0  0  0  0  0  0  0  0
   -3.7958    1.0756    0.4999 C   0  0  0  0  0  0  0  0  0  0  0  0
   -3.1378    2.2802    0.1205 C   0  0  0  0  0  0  0  0  0  0  0  0
   -2.5788    3.2504   -0.1828 N   0  0  0  0  0  0  0  0  0  0  0  0
   -5.1214    1.1892    1.0069 C   0  0  0  0  0  0  0  0  0  0  0  0
   -6.2001    1.2897    1.4199 N   0  0  0  0  0  0  0  0  0  0  0  0
    1.3618    1.0010    0.3466 N   0  0  0  0  0  0  0  0  0  0  0  0
    5.4503    2.2594   -0.5271 H   0  0  0  0  0  0  0  0  0  0  0  0
    5.2760    0.6049    0.0846 H   0  0  0  0  0  0  0  0  0  0  0  0
    4.7940    1.0124   -1.6023 H   0  0  0  0  0  0  0  0  0  0  0  0
    3.5176   -1.1561   -0.7986 H   0  0  0  0  0  0  0  0  0  0  0  0
    1.8230   -3.2485   -0.2542 H   0  0  0  0  0  0  0  0  0  0  0  0
    0.1897   -2.8844    0.3160 H   0  0  0  0  0  0  0  0  0  0  0  0
    0.5844   -2.7229   -1.4092 H   0  0  0  0  0  0  0  0  0  0  0  0
   -0.9499    0.3239    1.7114 H   0  0  0  0  0  0  0  0  0  0  0  0
   -2.3864   -0.2876   -2.0973 H   0  0  0  0  0  0  0  0  0  0  0  0
   -0.7450   -0.5315   -1.8230 H   0  0  0  0  0  0  0  0  0  0  0  0
    1.0665    1.9205    0.6431 H   0  0  0  0  0  0  0  0  0  0  0  0
  1  2  1  0
  2  3  1  0
  3  4  2  0
  4  5  1  0
  5  6  1  0
  5  7  2  0
  7  8  1  0
  8  9  2  3
  9 10  1  0
  9 11  1  0
 11 12  1  0
 12 13  3  0
 11 14  2  3
 14 15  1  0
 15 16  3  0
 14 17  1  0
 17 18  3  0
  7 19  1  0
 19  3  1  0
  1 20  1  0
  1 21  1  0
  1 22  1  0
  4 23  1  0
  6 24  1  0
  6 25  1  0
  6 26  1  0
  8 27  1  0
 10 28  1  0
 10 29  1  0
 19 30  1  0
M  END
$$$$
