
     RDKit          3D

 36 38  0  0  0  0  0  0  0  0999 V2000
   -1.9992   -2.4297    1.8543 C   0  0  0  0  0  0  0  0  0  0  0  0
   -1.1366   -1.4575    1.1302 C   0  0  0  0  0  0  0  0  0  0  0  0
    0.2728   -1.5664    0.9546 C   0  0  0  0  0  0  0  0  0  0  0  0
    0.7174   -0.4722    0.2349 C   0  0  0  0  0  0  0  0  0  0  0  0
    2.0633   -0.1037   -0.2028 C   0  0  0  0  0  0  0  0  0  0  0  0
    2.2753    0.5384   -1.4345 C   0  0  0  0  0  0  0  0  0  0  0  0
    3.5653    0.8853   -1.8596 C   0  0  0  0  0  0  0  0  0  0  0  0
    4.6623    0.5957   -1.0528 C   0  0  0  0  0  0  0  0  0  0  0  0
    5.9204    0.9059   -1.4760 O   0  0  0  0  0  0  0  0  0  0  0  0
    4.4512   -0.0360    0.1714 C   0  0  0  0  0  0  0  0  0  0  0  0
    5.5691   -0.3356    1.0396 N   0  0  0  0  0  0  0  0  0  0  0  0
    5.7796   -1.5317    1.2880 O   0  0  0  0  0  0  0  0  0  0  0  0
    6.1947    0.6211    1.5170 O   0  0  0  0  0  0  0  0  0  0  0  0
    3.1688   -0.3968    0.6028 C   0  0  0  0  0  0  0  0  0  0  0  0
   -0.3949    0.3003   -0.0103 N   0  0  0  0  0  0  0  0  0  0  0  0
   -1.5291   -0.2781    0.5135 C   0  0  0  0  0  0  0  0  0  0  0  0
   -2.8441    0.3414    0.3652 C   0  0  0  0  0  0  0  0  0  0  0  0
   -3.9103   -0.3803   -0.1842 C   0  0  0  0  0  0  0  0  0  0  0  0
   -5.1652    0.2139   -0.3355 C   0  0  0  0  0  0  0  0  0  0  0  0
   -5.3644    1.5345    0.0629 C   0  0  0  0  0  0  0  0  0  0  0  0
   -4.3103    2.2615    0.6133 C   0  0  0  0  0  0  0  0  0  0  0  0
   -3.0547    1.6679    0.7633 C   0  0  0  0  0  0  0  0  0  0  0  0
   -2.7200   -1.9120    2.4954 H   0  0  0  0  0  0  0  0  0  0  0  0
   -1.3994   -3.0877    2.4915 H   0  0  0  0  0  0  0  0  0  0  0  0
   -2.5487   -3.0544    1.1433 H   0  0  0  0  0  0  0  0  0  0  0  0
    0.8955   -2.3766    1.3144 H   0  0  0  0  0  0  0  0  0  0  0  0
    1.4372    0.7529   -2.0949 H   0  0  0  0  0  0  0  0  0  0  0  0
    3.6882    1.3667   -2.8260 H   0  0  0  0  0  0  0  0  0  0  0  0
    5.8796    1.3812   -2.3232 H   0  0  0  0  0  0  0  0  0  0  0  0
    3.0366   -0.8894    1.5639 H   0  0  0  0  0  0  0  0  0  0  0  0
   -0.3900    1.1783   -0.5092 H   0  0  0  0  0  0  0  0  0  0  0  0
   -3.7669   -1.4085   -0.5074 H   0  0  0  0  0  0  0  0  0  0  0  0
   -5.9859   -0.3551   -0.7643 H   0  0  0  0  0  0  0  0  0  0  0  0
   -6.3421    1.9954   -0.0519 H   0  0  0  0  0  0  0  0  0  0  0  0
   -4.4669    3.2886    0.9324 H   0  0  0  0  0  0  0  0  0  0  0  0
   -2.2486    2.2429    1.2122 H   0  0  0  0  0  0  0  0  0  0  0  0
  1  2  1  0
  2  3  1  0
  3  4  2  0
  4  5  1  0
  5  6  1  0
  6  7  2  0
  7  8  1  0
  8  9  1  0
  8 10  2  0
 10 11  1  0
 11 12  2  0
 11 13  1  0
 10 14  1  0
  4 15  1  0
 15 16  1  0
 16 17  1  0
 17 18  2  0
 18 19  1  0
 19 20  2  0
 20 21  1  0
 21 22  2  0
 16  2  2  0
 22 17  1  0
 14  5  2  0
  1 23  1  0
  1 24  1  0
  1 25  1  0
  3 26  1  0
  6 27  1  0
  7 28  1  0
  9 29  1  0
 14 30  1  0
 15 31  1  0
 18 32  1  0
 19 33  1  0
 20 34  1  0
 21 35  1  0
 22 36  1  0
M  CHG  2  11   1  13  -1
M  END
$$$$
