
     RDKit          3D

 22 23  0  0  0  0  0  0  0  0999 V2000
    4.8361    0.3894   -0.3414 F   0  0  0  0  0  0  0  0  0  0  0  0
    3.5037    0.2761   -0.2390 C   0  0  0  0  0  0  0  0  0  0  0  0
    2.7066    0.8590   -1.2172 C   0  0  0  0  0  0  0  0  0  0  0  0
    1.3160    0.7532   -1.1294 C   0  0  0  0  0  0  0  0  0  0  0  0
    0.7068    0.0650   -0.0638 C   0  0  0  0  0  0  0  0  0  0  0  0
   -0.7586   -0.0439    0.0265 C   0  0  0  0  0  0  0  0  0  0  0  0
   -1.4437    0.3493    1.1885 C   0  0  0  0  0  0  0  0  0  0  0  0
   -2.8348    0.2461    1.2748 C   0  0  0  0  0  0  0  0  0  0  0  0
   -3.5650   -0.2536    0.1998 C   0  0  0  0  0  0  0  0  0  0  0  0
   -2.9059   -0.6496   -0.9610 C   0  0  0  0  0  0  0  0  0  0  0  0
   -1.5149   -0.5450   -1.0465 C   0  0  0  0  0  0  0  0  0  0  0  0
    1.5357   -0.5159    0.9132 C   0  0  0  0  0  0  0  0  0  0  0  0
    2.9259   -0.4103    0.8247 C   0  0  0  0  0  0  0  0  0  0  0  0
    3.9081   -1.1361    2.0386 Cl  0  0  0  0  0  0  0  0  0  0  0  0
    3.1707    1.3944   -2.0397 H   0  0  0  0  0  0  0  0  0  0  0  0
    0.7032    1.2249   -1.8963 H   0  0  0  0  0  0  0  0  0  0  0  0
   -0.8960    0.7531    2.0379 H   0  0  0  0  0  0  0  0  0  0  0  0
   -3.3465    0.5585    2.1815 H   0  0  0  0  0  0  0  0  0  0  0  0
   -4.6468   -0.3348    0.2668 H   0  0  0  0  0  0  0  0  0  0  0  0
   -3.4728   -1.0435   -1.8007 H   0  0  0  0  0  0  0  0  0  0  0  0
   -1.0211   -0.8718   -1.9595 H   0  0  0  0  0  0  0  0  0  0  0  0
    1.0934   -1.0644    1.7425 H   0  0  0  0  0  0  0  0  0  0  0  0
  1  2  1  0
  2  3  1  0
  3  4  2  0
  4  5  1  0
  5  6  1  0
  6  7  2  0
  7  8  1  0
  8  9  2  0
  9 10  1  0
 10 11  2  0
  5 12  2  0
 12 13  1  0
 13 14  1  0
 13  2  2  0
 11  6  1  0
  3 15  1  0
  4 16  1  0
  7 17  1  0
  8 18  1  0
  9 19  1  0
 10 20  1  0
 11 21  1  0
 12 22  1  0
M  END
$$$$
