
     RDKit          3D

 38 40  0  0  0  0  0  0  0  0999 V2000
    3.5514   -1.7572    1.9959 N   0  0  0  0  0  0  0  0  0  0  0  0
    3.6818   -1.6636    0.8464 C   0  0  0  0  0  0  0  0  0  0  0  0
    3.7763   -1.5345   -0.5698 C   0  0  0  0  0  0  0  0  0  0  0  0
    4.9797   -1.9759   -1.1873 C   0  0  0  0  0  0  0  0  0  0  0  0
    5.9356   -2.3615   -1.7213 N   0  0  0  0  0  0  0  0  0  0  0  0
    2.7592   -1.0172   -1.3123 C   0  0  0  0  0  0  0  0  0  0  0  0
    2.7846   -0.8622   -2.6976 N   0  0  0  0  0  0  0  0  0  0  0  0
    1.5077   -0.5457   -0.6657 C   0  0  0  0  0  0  0  0  0  0  0  0
    0.4594   -1.5144   -0.7326 C   0  0  0  0  0  0  0  0  0  0  0  0
   -0.2881   -2.3931   -0.8602 N   0  0  0  0  0  0  0  0  0  0  0  0
    1.3801    0.6629   -0.0736 C   0  0  0  0  0  0  0  0  0  0  0  0
    2.5658    1.6027    0.0412 C   0  0  0  0  0  0  0  0  0  0  0  0
    3.7035    1.4331   -0.3503 O   0  0  0  0  0  0  0  0  0  0  0  0
    2.1056    2.6930    0.7329 N   0  0  0  0  0  0  0  0  0  0  0  0
    0.7723    2.5590    1.0704 C   0  0  0  0  0  0  0  0  0  0  0  0
    0.1247    3.5050    1.7474 N   0  0  0  0  0  0  0  0  0  0  0  0
   -1.1565    3.2066    1.9603 C   0  0  0  0  0  0  0  0  0  0  0  0
   -1.7868    2.0942    1.5412 N   0  0  0  0  0  0  0  0  0  0  0  0
   -1.0778    1.1686    0.8507 C   0  0  0  0  0  0  0  0  0  0  0  0
   -1.7595    0.0369    0.3641 N   0  0  0  0  0  0  0  0  0  0  0  0
   -2.7092    0.4482   -0.7049 C   0  0  0  0  0  0  0  0  0  0  0  0
   -3.5211   -0.7654   -1.1878 C   0  0  0  0  0  0  0  0  0  0  0  0
   -4.2423   -1.3738   -0.1050 O   0  0  0  0  0  0  0  0  0  0  0  0
   -3.3250   -1.8124    0.9113 C   0  0  0  0  0  0  0  0  0  0  0  0
   -2.5047   -0.6353    1.4653 C   0  0  0  0  0  0  0  0  0  0  0  0
    0.2614    1.3577    0.5982 C   0  0  0  0  0  0  0  0  0  0  0  0
    3.5201   -1.3598   -3.2005 H   0  0  0  0  0  0  0  0  0  0  0  0
    1.8844   -0.9289   -3.1706 H   0  0  0  0  0  0  0  0  0  0  0  0
    2.6662    3.4907    0.9878 H   0  0  0  0  0  0  0  0  0  0  0  0
   -1.7498    3.9254    2.5156 H   0  0  0  0  0  0  0  0  0  0  0  0
   -2.1590    0.8732   -1.5530 H   0  0  0  0  0  0  0  0  0  0  0  0
   -3.4092    1.2063   -0.3286 H   0  0  0  0  0  0  0  0  0  0  0  0
   -4.2553   -0.4447   -1.9336 H   0  0  0  0  0  0  0  0  0  0  0  0
   -2.8780   -1.5173   -1.6579 H   0  0  0  0  0  0  0  0  0  0  0  0
   -2.6808   -2.5956    0.4986 H   0  0  0  0  0  0  0  0  0  0  0  0
   -3.9160   -2.2609    1.7162 H   0  0  0  0  0  0  0  0  0  0  0  0
   -1.8010   -1.0072    2.2194 H   0  0  0  0  0  0  0  0  0  0  0  0
   -3.2000    0.0631    1.9497 H   0  0  0  0  0  0  0  0  0  0  0  0
  1  2  3  0
  2  3  1  0
  3  4  1  0
  4  5  3  0
  3  6  2  3
  6  7  1  0
  6  8  1  0
  8  9  1  0
  9 10  3  0
  8 11  2  3
 11 12  1  0
 12 13  2  0
 12 14  1  0
 14 15  1  0
 15 16  1  0
 16 17  2  0
 17 18  1  0
 18 19  2  0
 19 20  1  0
 20 21  1  0
 21 22  1  0
 22 23  1  0
 23 24  1  0
 24 25  1  0
 19 26  1  0
 26 11  1  0
 26 15  2  0
 25 20  1  0
  7 27  1  0
  7 28  1  0
 14 29  1  0
 17 30  1  0
 21 31  1  0
 21 32  1  0
 22 33  1  0
 22 34  1  0
 24 35  1  0
 24 36  1  0
 25 37  1  0
 25 38  1  0
M  END
$$$$
