
     RDKit          3D

 36 37  0  0  0  0  0  0  0  0999 V2000
    1.3568    3.0895   -1.4273 C   0  0  0  0  0  0  0  0  0  0  0  0
    0.2395    2.1579   -1.8744 C   0  0  0  0  0  0  0  0  0  0  0  0
   -0.0967    1.1568   -0.8569 N   0  0  0  0  0  0  0  0  0  0  0  0
   -1.1675    1.4994   -0.0055 C   0  0  0  0  0  0  0  0  0  0  0  0
   -1.5744    2.6531    0.1391 O   0  0  0  0  0  0  0  0  0  0  0  0
   -1.9399    0.4314    0.6882 C   0  0  0  0  0  0  0  0  0  0  0  0
   -2.2315   -0.7867    0.0588 C   0  0  0  0  0  0  0  0  0  0  0  0
   -2.9708   -1.7607    0.7314 C   0  0  0  0  0  0  0  0  0  0  0  0
   -3.4341   -1.5134    2.0243 C   0  0  0  0  0  0  0  0  0  0  0  0
   -3.1651   -0.2895    2.6374 C   0  0  0  0  0  0  0  0  0  0  0  0
   -3.7467    0.0115    4.2283 Cl  0  0  0  0  0  0  0  0  0  0  0  0
   -2.4269    0.6883    1.9752 C   0  0  0  0  0  0  0  0  0  0  0  0
    0.7649    0.0798   -0.5646 C   0  0  0  0  0  0  0  0  0  0  0  0
    0.8981   -0.4290    0.7121 N   0  0  0  0  0  0  0  0  0  0  0  0
    1.8147   -1.4461    0.7449 C   0  0  0  0  0  0  0  0  0  0  0  0
    2.1298   -2.1727    1.9981 C   0  0  0  0  0  0  0  0  0  0  0  0
    2.3110   -1.5807   -0.5293 C   0  0  0  0  0  0  0  0  0  0  0  0
    1.6694   -0.6160   -1.3626 C   0  0  0  0  0  0  0  0  0  0  0  0
    1.9418   -0.4750   -2.8183 C   0  0  0  0  0  0  0  0  0  0  0  0
    2.2843    2.5391   -1.2408 H   0  0  0  0  0  0  0  0  0  0  0  0
    1.5566    3.8388   -2.1994 H   0  0  0  0  0  0  0  0  0  0  0  0
    1.0879    3.6128   -0.5040 H   0  0  0  0  0  0  0  0  0  0  0  0
    0.4975    1.6616   -2.8114 H   0  0  0  0  0  0  0  0  0  0  0  0
   -0.6510    2.7580   -2.0989 H   0  0  0  0  0  0  0  0  0  0  0  0
   -1.8873   -0.9825   -0.9547 H   0  0  0  0  0  0  0  0  0  0  0  0
   -3.1896   -2.7090    0.2460 H   0  0  0  0  0  0  0  0  0  0  0  0
   -4.0118   -2.2738    2.5442 H   0  0  0  0  0  0  0  0  0  0  0  0
   -2.2326    1.6472    2.4505 H   0  0  0  0  0  0  0  0  0  0  0  0
    0.4248   -0.0717    1.5288 H   0  0  0  0  0  0  0  0  0  0  0  0
    2.8507   -2.9760    1.8156 H   0  0  0  0  0  0  0  0  0  0  0  0
    1.2247   -2.6196    2.4220 H   0  0  0  0  0  0  0  0  0  0  0  0
    2.5603   -1.4917    2.7391 H   0  0  0  0  0  0  0  0  0  0  0  0
    3.0630   -2.2971   -0.8375 H   0  0  0  0  0  0  0  0  0  0  0  0
    2.4807    0.4551   -3.0221 H   0  0  0  0  0  0  0  0  0  0  0  0
    2.5600   -1.3017   -3.1847 H   0  0  0  0  0  0  0  0  0  0  0  0
    1.0096   -0.4873   -3.3914 H   0  0  0  0  0  0  0  0  0  0  0  0
  1  2  1  0
  2  3  1  0
  3  4  1  0
  4  5  2  0
  4  6  1  0
  6  7  2  0
  7  8  1  0
  8  9  2  0
  9 10  1  0
 10 11  1  0
 10 12  2  0
  3 13  1  0
 13 14  1  0
 14 15  1  0
 15 16  1  0
 15 17  2  0
 17 18  1  0
 18 19  1  0
 12  6  1  0
 18 13  2  0
  1 20  1  0
  1 21  1  0
  1 22  1  0
  2 23  1  0
  2 24  1  0
  7 25  1  0
  8 26  1  0
  9 27  1  0
 12 28  1  0
 14 29  1  0
 16 30  1  0
 16 31  1  0
 16 32  1  0
 17 33  1  0
 19 34  1  0
 19 35  1  0
 19 36  1  0
M  END
$$$$
