
     RDKit          3D

 39 41  0  0  0  0  0  0  0  0999 V2000
   -1.5774    0.4458   -2.8982 C   0  0  0  0  0  0  0  0  0  0  0  0
   -0.8031    0.3966   -1.6311 C   0  0  0  0  0  0  0  0  0  0  0  0
    0.6225    0.3473   -1.5556 C   0  0  0  0  0  0  0  0  0  0  0  0
    1.0014    0.2862   -0.2268 C   0  0  0  0  0  0  0  0  0  0  0  0
    2.3270    0.2172    0.3885 C   0  0  0  0  0  0  0  0  0  0  0  0
    2.5803    0.8139    1.6316 C   0  0  0  0  0  0  0  0  0  0  0  0
    3.8492    0.7442    2.2152 C   0  0  0  0  0  0  0  0  0  0  0  0
    4.8870    0.0800    1.5656 C   0  0  0  0  0  0  0  0  0  0  0  0
    6.0817    0.0758    2.2319 O   0  0  0  0  0  0  0  0  0  0  0  0
    4.6495   -0.5149    0.3204 C   0  0  0  0  0  0  0  0  0  0  0  0
    5.7161   -1.2188   -0.3944 N   0  0  0  0  0  0  0  0  0  0  0  0
    6.8293   -1.2770    0.1536 O   0  0  0  0  0  0  0  0  0  0  0  0
    5.4539   -1.7146   -1.4987 O   0  0  0  0  0  0  0  0  0  0  0  0
    3.3741   -0.4459   -0.2663 C   0  0  0  0  0  0  0  0  0  0  0  0
   -0.1696    0.2814    0.4941 N   0  0  0  0  0  0  0  0  0  0  0  0
   -1.2669    0.3556   -0.3281 C   0  0  0  0  0  0  0  0  0  0  0  0
   -2.4970    0.3875    0.2580 N   0  0  0  0  0  0  0  0  0  0  0  0
   -2.9332   -0.8396    0.9691 C   0  0  0  0  0  0  0  0  0  0  0  0
   -4.3888   -0.7035    1.4413 C   0  0  0  0  0  0  0  0  0  0  0  0
   -5.3229   -0.5052    0.3689 O   0  0  0  0  0  0  0  0  0  0  0  0
   -4.7544    0.1911   -0.7530 C   0  0  0  0  0  0  0  0  0  0  0  0
   -3.6059    1.1355   -0.3698 C   0  0  0  0  0  0  0  0  0  0  0  0
   -2.4553   -0.2044   -2.8492 H   0  0  0  0  0  0  0  0  0  0  0  0
   -1.9036    1.4685   -3.1098 H   0  0  0  0  0  0  0  0  0  0  0  0
   -0.9673    0.1077   -3.7426 H   0  0  0  0  0  0  0  0  0  0  0  0
    1.2995    0.3639   -2.4009 H   0  0  0  0  0  0  0  0  0  0  0  0
    1.7998    1.3613    2.1556 H   0  0  0  0  0  0  0  0  0  0  0  0
    4.0284    1.2172    3.1784 H   0  0  0  0  0  0  0  0  0  0  0  0
    6.7546   -0.4096    1.7089 H   0  0  0  0  0  0  0  0  0  0  0  0
    3.1854   -0.9168   -1.2297 H   0  0  0  0  0  0  0  0  0  0  0  0
   -0.2368    0.2531    1.4989 H   0  0  0  0  0  0  0  0  0  0  0  0
   -2.8529   -1.6986    0.2906 H   0  0  0  0  0  0  0  0  0  0  0  0
   -2.2885   -1.0205    1.8365 H   0  0  0  0  0  0  0  0  0  0  0  0
   -4.4903    0.1407    2.1334 H   0  0  0  0  0  0  0  0  0  0  0  0
   -4.6959   -1.6056    1.9798 H   0  0  0  0  0  0  0  0  0  0  0  0
   -5.5629    0.7551   -1.2287 H   0  0  0  0  0  0  0  0  0  0  0  0
   -4.4139   -0.5632   -1.4709 H   0  0  0  0  0  0  0  0  0  0  0  0
   -3.2827    1.7182   -1.2369 H   0  0  0  0  0  0  0  0  0  0  0  0
   -3.9703    1.8587    0.3704 H   0  0  0  0  0  0  0  0  0  0  0  0
  1  2  1  0
  2  3  1  0
  3  4  2  0
  4  5  1  0
  5  6  1  0
  6  7  2  0
  7  8  1  0
  8  9  1  0
  8 10  2  0
 10 11  1  0
 11 12  2  0
 11 13  1  0
 10 14  1  0
  4 15  1  0
 15 16  1  0
 16 17  1  0
 17 18  1  0
 18 19  1  0
 19 20  1  0
 20 21  1  0
 21 22  1  0
 16  2  2  0
 22 17  1  0
 14  5  2  0
  1 23  1  0
  1 24  1  0
  1 25  1  0
  3 26  1  0
  6 27  1  0
  7 28  1  0
  9 29  1  0
 14 30  1  0
 15 31  1  0
 18 32  1  0
 18 33  1  0
 19 34  1  0
 19 35  1  0
 21 36  1  0
 21 37  1  0
 22 38  1  0
 22 39  1  0
M  CHG  2  11   1  13  -1
M  END
$$$$
