
     RDKit          3D

 56 60  0  0  0  0  0  0  0  0999 V2000
    4.2640   -0.5055   -1.1790 O   0  0  0  0  0  0  0  0  0  0  0  0
    4.4859   -0.2428   -0.0028 C   0  0  0  0  0  0  0  0  0  0  0  0
    3.5981   -0.7390    1.0261 C   0  0  0  0  0  0  0  0  0  0  0  0
    3.2716   -0.2785    2.2916 C   0  0  0  0  0  0  0  0  0  0  0  0
    2.3004   -1.1497    2.8438 C   0  0  0  0  0  0  0  0  0  0  0  0
    2.0123   -2.1047    1.8893 C   0  0  0  0  0  0  0  0  0  0  0  0
    1.0424   -3.2431    1.8867 C   0  0  0  0  0  0  0  0  0  0  0  0
   -0.3273   -2.7756    1.6230 N   0  0  0  0  0  0  0  0  0  0  0  0
   -0.4772   -2.3730    0.4528 N   0  0  0  0  0  0  0  0  0  0  0  0
   -1.7680   -2.0108    0.3511 N   0  0  0  0  0  0  0  0  0  0  0  0
   -2.1021   -0.9117   -0.4627 C   0  0  0  0  0  0  0  0  0  0  0  0
   -1.2162   -0.3318   -1.3638 C   0  0  0  0  0  0  0  0  0  0  0  0
   -1.6161    0.7422   -2.1703 C   0  0  0  0  0  0  0  0  0  0  0  0
   -2.9080    1.2452   -2.1414 C   0  0  0  0  0  0  0  0  0  0  0  0
   -3.2247    2.2770   -2.9327 N   0  0  0  0  0  0  0  0  0  0  0  0
   -4.4855    2.7229   -2.8775 C   0  0  0  0  0  0  0  0  0  0  0  0
   -5.4621    2.2261   -2.1198 N   0  0  0  0  0  0  0  0  0  0  0  0
   -5.1256    1.1734   -1.3416 C   0  0  0  0  0  0  0  0  0  0  0  0
   -6.2393    0.6375   -0.5478 C   0  0  0  0  0  0  0  0  0  0  0  0
   -6.6650    1.2837    0.6240 C   0  0  0  0  0  0  0  0  0  0  0  0
   -7.7046    0.7558    1.3956 C   0  0  0  0  0  0  0  0  0  0  0  0
   -8.3364   -0.4212    1.0003 C   0  0  0  0  0  0  0  0  0  0  0  0
   -7.9354   -1.0682   -0.1688 C   0  0  0  0  0  0  0  0  0  0  0  0
   -6.8960   -0.5409   -0.9389 C   0  0  0  0  0  0  0  0  0  0  0  0
   -3.8300    0.6355   -1.2897 C   0  0  0  0  0  0  0  0  0  0  0  0
   -3.4162   -0.4367   -0.4563 C   0  0  0  0  0  0  0  0  0  0  0  0
    2.7865   -1.8282    0.7907 N   0  0  0  0  0  0  0  0  0  0  0  0
    5.5747    0.5499    0.3696 N   0  0  0  0  0  0  0  0  0  0  0  0
    6.3465    1.1250   -0.7348 C   0  0  0  0  0  0  0  0  0  0  0  0
    7.2862    2.2284   -0.2554 C   0  0  0  0  0  0  0  0  0  0  0  0
    8.1345    1.7557    0.8034 O   0  0  0  0  0  0  0  0  0  0  0  0
    7.3434    1.3272    1.9176 C   0  0  0  0  0  0  0  0  0  0  0  0
    6.4099    0.1844    1.5213 C   0  0  0  0  0  0  0  0  0  0  0  0
    3.6720    0.6085    2.7633 H   0  0  0  0  0  0  0  0  0  0  0  0
    1.8307   -1.0596    3.8141 H   0  0  0  0  0  0  0  0  0  0  0  0
    1.0552   -3.7326    2.8692 H   0  0  0  0  0  0  0  0  0  0  0  0
    1.3277   -4.0068    1.1509 H   0  0  0  0  0  0  0  0  0  0  0  0
   -2.2712   -2.0329    1.2333 H   0  0  0  0  0  0  0  0  0  0  0  0
   -0.1928   -0.6878   -1.4383 H   0  0  0  0  0  0  0  0  0  0  0  0
   -0.8933    1.1897   -2.8472 H   0  0  0  0  0  0  0  0  0  0  0  0
   -4.7384    3.5647   -3.5132 H   0  0  0  0  0  0  0  0  0  0  0  0
   -6.1844    2.2088    0.9370 H   0  0  0  0  0  0  0  0  0  0  0  0
   -8.0235    1.2668    2.3010 H   0  0  0  0  0  0  0  0  0  0  0  0
   -9.1489   -0.8306    1.5976 H   0  0  0  0  0  0  0  0  0  0  0  0
   -8.4351   -1.9806   -0.4824 H   0  0  0  0  0  0  0  0  0  0  0  0
   -6.5979   -1.0498   -1.8533 H   0  0  0  0  0  0  0  0  0  0  0  0
   -4.1375   -0.9014    0.2136 H   0  0  0  0  0  0  0  0  0  0  0  0
    2.7590   -2.3189   -0.0943 H   0  0  0  0  0  0  0  0  0  0  0  0
    5.6649    1.5184   -1.4978 H   0  0  0  0  0  0  0  0  0  0  0  0
    6.9266    0.3065   -1.1802 H   0  0  0  0  0  0  0  0  0  0  0  0
    7.9286    2.5564   -1.0774 H   0  0  0  0  0  0  0  0  0  0  0  0
    6.7200    3.1011    0.1032 H   0  0  0  0  0  0  0  0  0  0  0  0
    6.7739    2.1805    2.3003 H   0  0  0  0  0  0  0  0  0  0  0  0
    8.0283    0.9984    2.7037 H   0  0  0  0  0  0  0  0  0  0  0  0
    7.0004   -0.6883    1.2132 H   0  0  0  0  0  0  0  0  0  0  0  0
    5.8152   -0.1188    2.3818 H   0  0  0  0  0  0  0  0  0  0  0  0
  1  2  2  0
  2  3  1  0
  3  4  2  0
  4  5  1  0
  5  6  2  0
  6  7  1  0
  7  8  1  0
  8  9  2  0
  9 10  1  0
 10 11  1  0
 11 12  1  0
 12 13  2  0
 13 14  1  0
 14 15  2  0
 15 16  1  0
 16 17  2  0
 17 18  1  0
 18 19  1  0
 19 20  2  0
 20 21  1  0
 21 22  2  0
 22 23  1  0
 23 24  2  0
 18 25  2  0
 25 26  1  0
  6 27  1  0
  2 28  1  0
 28 29  1  0
 29 30  1  0
 30 31  1  0
 31 32  1  0
 32 33  1  0
 27  3  1  0
 33 28  1  0
 26 11  2  0
 25 14  1  0
 24 19  1  0
  4 34  1  0
  5 35  1  0
  7 36  1  0
  7 37  1  0
 10 38  1  0
 12 39  1  0
 13 40  1  0
 16 41  1  0
 20 42  1  0
 21 43  1  0
 22 44  1  0
 23 45  1  0
 24 46  1  0
 26 47  1  0
 27 48  1  0
 29 49  1  0
 29 50  1  0
 30 51  1  0
 30 52  1  0
 32 53  1  0
 32 54  1  0
 33 55  1  0
 33 56  1  0
M  END
$$$$
