
     RDKit          3D

 33 35  0  0  0  0  0  0  0  0999 V2000
    6.4345   -0.3089    1.1665 O   0  0  0  0  0  0  0  0  0  0  0  0
    5.3305    0.2287    1.3540 N   0  0  0  0  0  0  0  0  0  0  0  0
    5.1038    1.0726    2.2315 O   0  0  0  0  0  0  0  0  0  0  0  0
    4.2302   -0.1680    0.4730 C   0  0  0  0  0  0  0  0  0  0  0  0
    2.9631    0.4067    0.6733 C   0  0  0  0  0  0  0  0  0  0  0  0
    1.8846    0.0507   -0.1486 C   0  0  0  0  0  0  0  0  0  0  0  0
    0.5671    0.6522    0.0641 C   0  0  0  0  0  0  0  0  0  0  0  0
    0.2136    1.9114    0.5162 C   0  0  0  0  0  0  0  0  0  0  0  0
   -1.1995    1.9835    0.5610 C   0  0  0  0  0  0  0  0  0  0  0  0
   -1.7056    0.7694    0.1348 C   0  0  0  0  0  0  0  0  0  0  0  0
   -3.0872    0.3028    0.0064 C   0  0  0  0  0  0  0  0  0  0  0  0
   -4.0623    0.7218    0.9214 C   0  0  0  0  0  0  0  0  0  0  0  0
   -5.3830    0.2789    0.8106 C   0  0  0  0  0  0  0  0  0  0  0  0
   -5.7448   -0.5852   -0.2200 C   0  0  0  0  0  0  0  0  0  0  0  0
   -4.7878   -1.0048   -1.1411 C   0  0  0  0  0  0  0  0  0  0  0  0
   -3.4664   -0.5630   -1.0292 C   0  0  0  0  0  0  0  0  0  0  0  0
   -0.6155   -0.0250   -0.1479 N   0  0  0  0  0  0  0  0  0  0  0  0
    2.0981   -0.8806   -1.1746 C   0  0  0  0  0  0  0  0  0  0  0  0
    3.3587   -1.4524   -1.3728 C   0  0  0  0  0  0  0  0  0  0  0  0
    4.4277   -1.1016   -0.5516 C   0  0  0  0  0  0  0  0  0  0  0  0
    5.6106   -1.7255   -0.8392 O   0  0  0  0  0  0  0  0  0  0  0  0
    2.8057    1.1252    1.4763 H   0  0  0  0  0  0  0  0  0  0  0  0
    0.8993    2.7063    0.7812 H   0  0  0  0  0  0  0  0  0  0  0  0
   -1.7873    2.8402    0.8653 H   0  0  0  0  0  0  0  0  0  0  0  0
   -3.7993    1.3896    1.7383 H   0  0  0  0  0  0  0  0  0  0  0  0
   -6.1272    0.6096    1.5305 H   0  0  0  0  0  0  0  0  0  0  0  0
   -6.7727   -0.9275   -0.3076 H   0  0  0  0  0  0  0  0  0  0  0  0
   -5.0708   -1.6711   -1.9520 H   0  0  0  0  0  0  0  0  0  0  0  0
   -2.7456   -0.8870   -1.7749 H   0  0  0  0  0  0  0  0  0  0  0  0
   -0.6793   -0.9922   -0.4310 H   0  0  0  0  0  0  0  0  0  0  0  0
    1.2926   -1.1601   -1.8500 H   0  0  0  0  0  0  0  0  0  0  0  0
    3.5073   -2.1701   -2.1768 H   0  0  0  0  0  0  0  0  0  0  0  0
    6.3067   -1.4267   -0.2161 H   0  0  0  0  0  0  0  0  0  0  0  0
  1  2  2  0
  2  3  1  0
  2  4  1  0
  4  5  1  0
  5  6  2  0
  6  7  1  0
  7  8  2  0
  8  9  1  0
  9 10  2  0
 10 11  1  0
 11 12  2  0
 12 13  1  0
 13 14  2  0
 14 15  1  0
 15 16  2  0
 10 17  1  0
  6 18  1  0
 18 19  2  0
 19 20  1  0
 20 21  1  0
 20  4  2  0
 17  7  1  0
 16 11  1  0
  5 22  1  0
  8 23  1  0
  9 24  1  0
 12 25  1  0
 13 26  1  0
 14 27  1  0
 15 28  1  0
 16 29  1  0
 17 30  1  0
 18 31  1  0
 19 32  1  0
 21 33  1  0
M  CHG  2   2   1   3  -1
M  END
$$$$
