
     RDKit          3D

 49 52  0  0  0  0  0  0  0  0999 V2000
    7.5114   -3.5681    0.1883 Cl  0  0  0  0  0  0  0  0  0  0  0  0
    6.8221   -2.0241    0.5087 C   0  0  0  0  0  0  0  0  0  0  0  0
    6.9105   -1.4832    1.7911 C   0  0  0  0  0  0  0  0  0  0  0  0
    6.3569   -0.2314    2.0521 C   0  0  0  0  0  0  0  0  0  0  0  0
    5.7096    0.4705    1.0316 C   0  0  0  0  0  0  0  0  0  0  0  0
    5.6020   -0.0710   -0.2630 C   0  0  0  0  0  0  0  0  0  0  0  0
    4.9194    0.6685   -1.3355 C   0  0  0  0  0  0  0  0  0  0  0  0
    5.7628    1.1808   -2.2568 N   0  0  0  0  0  0  0  0  0  0  0  0
    5.1986    1.9041   -3.2277 C   0  0  0  0  0  0  0  0  0  0  0  0
    3.8907    2.1549   -3.3676 N   0  0  0  0  0  0  0  0  0  0  0  0
    3.0701    1.6204   -2.4557 C   0  0  0  0  0  0  0  0  0  0  0  0
    1.7057    1.8384   -2.5762 C   0  0  0  0  0  0  0  0  0  0  0  0
    0.7860    1.3037   -1.6653 C   0  0  0  0  0  0  0  0  0  0  0  0
    1.2154    0.5373   -0.5834 C   0  0  0  0  0  0  0  0  0  0  0  0
    0.3267   -0.0830    0.3088 N   0  0  0  0  0  0  0  0  0  0  0  0
   -0.9523    0.3251    0.3589 N   0  0  0  0  0  0  0  0  0  0  0  0
   -1.4172   -0.1584    1.4088 N   0  0  0  0  0  0  0  0  0  0  0  0
   -2.8382    0.1877    1.5977 C   0  0  0  0  0  0  0  0  0  0  0  0
   -3.7181   -0.7589    0.7669 C   0  0  0  0  0  0  0  0  0  0  0  0
   -5.1645   -0.6268    1.0343 N   0  0  0  0  0  0  0  0  0  0  0  0
   -5.6941    0.6877    0.6093 C   0  0  0  0  0  0  0  0  0  0  0  0
   -7.2200    0.7669    0.7909 C   0  0  0  0  0  0  0  0  0  0  0  0
   -7.8880   -0.2696    0.0617 O   0  0  0  0  0  0  0  0  0  0  0  0
   -7.4247   -1.5512    0.5037 C   0  0  0  0  0  0  0  0  0  0  0  0
   -5.9065   -1.6864    0.3097 C   0  0  0  0  0  0  0  0  0  0  0  0
    2.5882    0.2941   -0.4686 C   0  0  0  0  0  0  0  0  0  0  0  0
    3.5254    0.8427   -1.3864 C   0  0  0  0  0  0  0  0  0  0  0  0
    6.1783   -1.3263   -0.5142 C   0  0  0  0  0  0  0  0  0  0  0  0
    7.4153   -2.0280    2.5853 H   0  0  0  0  0  0  0  0  0  0  0  0
    6.4355    0.2046    3.0454 H   0  0  0  0  0  0  0  0  0  0  0  0
    5.2950    1.4550    1.2455 H   0  0  0  0  0  0  0  0  0  0  0  0
    5.8620    2.3287   -3.9724 H   0  0  0  0  0  0  0  0  0  0  0  0
    1.3388    2.4338   -3.4098 H   0  0  0  0  0  0  0  0  0  0  0  0
   -0.2734    1.4908   -1.8236 H   0  0  0  0  0  0  0  0  0  0  0  0
    0.7126   -0.3919    1.1937 H   0  0  0  0  0  0  0  0  0  0  0  0
   -3.0109    1.2379    1.3330 H   0  0  0  0  0  0  0  0  0  0  0  0
   -3.0746    0.0788    2.6625 H   0  0  0  0  0  0  0  0  0  0  0  0
   -3.5076   -0.6173   -0.3018 H   0  0  0  0  0  0  0  0  0  0  0  0
   -3.4120   -1.7853    1.0083 H   0  0  0  0  0  0  0  0  0  0  0  0
   -5.4527    0.8660   -0.4481 H   0  0  0  0  0  0  0  0  0  0  0  0
   -5.2422    1.4905    1.2015 H   0  0  0  0  0  0  0  0  0  0  0  0
   -7.5867    1.7265    0.4127 H   0  0  0  0  0  0  0  0  0  0  0  0
   -7.4961    0.7018    1.8505 H   0  0  0  0  0  0  0  0  0  0  0  0
   -7.9436   -2.3105   -0.0912 H   0  0  0  0  0  0  0  0  0  0  0  0
   -7.7073   -1.6992    1.5520 H   0  0  0  0  0  0  0  0  0  0  0  0
   -5.5927   -2.6756    0.6689 H   0  0  0  0  0  0  0  0  0  0  0  0
   -5.6817   -1.6270   -0.7643 H   0  0  0  0  0  0  0  0  0  0  0  0
    2.9418   -0.3420    0.3419 H   0  0  0  0  0  0  0  0  0  0  0  0
    6.1243   -1.7545   -1.5122 H   0  0  0  0  0  0  0  0  0  0  0  0
  1  2  1  0
  2  3  1  0
  3  4  2  0
  4  5  1  0
  5  6  2  0
  6  7  1  0
  7  8  1  0
  8  9  2  0
  9 10  1  0
 10 11  2  0
 11 12  1  0
 12 13  2  0
 13 14  1  0
 14 15  1  0
 15 16  1  0
 16 17  2  0
 17 18  1  0
 18 19  1  0
 19 20  1  0
 20 21  1  0
 21 22  1  0
 22 23  1  0
 23 24  1  0
 24 25  1  0
 14 26  2  0
 26 27  1  0
  6 28  1  0
 28  2  2  0
 27  7  2  0
 27 11  1  0
 25 20  1  0
  3 29  1  0
  4 30  1  0
  5 31  1  0
  9 32  1  0
 12 33  1  0
 13 34  1  0
 15 35  1  0
 18 36  1  0
 18 37  1  0
 19 38  1  0
 19 39  1  0
 21 40  1  0
 21 41  1  0
 22 42  1  0
 22 43  1  0
 24 44  1  0
 24 45  1  0
 25 46  1  0
 25 47  1  0
 26 48  1  0
 28 49  1  0
M  END
$$$$
