
     RDKit          3D

 33 33  0  0  0  0  0  0  0  0999 V2000
   -3.1528    1.3959   -0.9064 C   0  0  0  0  0  0  0  0  0  0  0  0
   -3.1147    0.7134    0.3397 O   0  0  0  0  0  0  0  0  0  0  0  0
   -1.9281    0.1223    0.5982 C   0  0  0  0  0  0  0  0  0  0  0  0
   -1.3621    0.2053    1.8505 C   0  0  0  0  0  0  0  0  0  0  0  0
   -1.8214    0.8971    3.0803 C   0  0  0  0  0  0  0  0  0  0  0  0
   -0.1979   -0.5184    1.8191 N   0  0  0  0  0  0  0  0  0  0  0  0
   -0.0008   -1.0310    0.5581 C   0  0  0  0  0  0  0  0  0  0  0  0
    1.1872   -1.7697    0.3367 C   0  0  0  0  0  0  0  0  0  0  0  0
    2.2042   -1.3160   -0.4279 C   0  0  0  0  0  0  0  0  0  0  0  0
    3.3619   -2.0571   -0.6005 N   0  0  0  0  0  0  0  0  0  0  0  0
    2.1757    0.0103   -1.0651 C   0  0  0  0  0  0  0  0  0  0  0  0
    1.9175    0.0164   -2.4715 C   0  0  0  0  0  0  0  0  0  0  0  0
    1.7203    0.0109   -3.6144 N   0  0  0  0  0  0  0  0  0  0  0  0
    2.3733    1.1618   -0.3843 C   0  0  0  0  0  0  0  0  0  0  0  0
    2.6365    1.1561    1.0157 C   0  0  0  0  0  0  0  0  0  0  0  0
    2.8240    1.1361    2.1614 N   0  0  0  0  0  0  0  0  0  0  0  0
    2.3233    2.4283   -1.0319 C   0  0  0  0  0  0  0  0  0  0  0  0
    2.2870    3.4579   -1.5645 N   0  0  0  0  0  0  0  0  0  0  0  0
   -1.1012   -0.7012   -0.2221 C   0  0  0  0  0  0  0  0  0  0  0  0
   -1.3697   -1.1521   -1.6148 C   0  0  0  0  0  0  0  0  0  0  0  0
   -3.9478    2.1461   -0.8521 H   0  0  0  0  0  0  0  0  0  0  0  0
   -3.4074    0.7052   -1.7149 H   0  0  0  0  0  0  0  0  0  0  0  0
   -2.2143    1.9194   -1.1228 H   0  0  0  0  0  0  0  0  0  0  0  0
   -2.5523    0.2791    3.6112 H   0  0  0  0  0  0  0  0  0  0  0  0
   -2.2931    1.8539    2.8344 H   0  0  0  0  0  0  0  0  0  0  0  0
   -0.9867    1.1012    3.7587 H   0  0  0  0  0  0  0  0  0  0  0  0
    0.4420   -0.6168    2.5991 H   0  0  0  0  0  0  0  0  0  0  0  0
    1.2696   -2.7332    0.8352 H   0  0  0  0  0  0  0  0  0  0  0  0
    3.7927   -1.9644   -1.5200 H   0  0  0  0  0  0  0  0  0  0  0  0
    3.2622   -3.0400   -0.3482 H   0  0  0  0  0  0  0  0  0  0  0  0
   -1.2099   -0.3325   -2.3215 H   0  0  0  0  0  0  0  0  0  0  0  0
   -2.4019   -1.5035   -1.7124 H   0  0  0  0  0  0  0  0  0  0  0  0
   -0.7155   -1.9810   -1.9032 H   0  0  0  0  0  0  0  0  0  0  0  0
  1  2  1  0
  2  3  1  0
  3  4  2  0
  4  5  1  0
  4  6  1  0
  6  7  1  0
  7  8  1  0
  8  9  2  3
  9 10  1  0
  9 11  1  0
 11 12  1  0
 12 13  3  0
 11 14  2  3
 14 15  1  0
 15 16  3  0
 14 17  1  0
 17 18  3  0
  7 19  2  0
 19 20  1  0
 19  3  1  0
  1 21  1  0
  1 22  1  0
  1 23  1  0
  5 24  1  0
  5 25  1  0
  5 26  1  0
  6 27  1  0
  8 28  1  0
 10 29  1  0
 10 30  1  0
 20 31  1  0
 20 32  1  0
 20 33  1  0
M  END
$$$$
