
     RDKit          3D

 56 60  0  0  0  0  0  0  0  0999 V2000
    5.8282   -3.2920   -0.2808 C   0  0  0  0  0  0  0  0  0  0  0  0
    4.7005   -2.7119   -1.0813 C   0  0  0  0  0  0  0  0  0  0  0  0
    4.5171   -3.0789   -2.4195 C   0  0  0  0  0  0  0  0  0  0  0  0
    3.4923   -2.5074   -3.1741 C   0  0  0  0  0  0  0  0  0  0  0  0
    2.6490   -1.5551   -2.6010 C   0  0  0  0  0  0  0  0  0  0  0  0
    2.8326   -1.1613   -1.2719 C   0  0  0  0  0  0  0  0  0  0  0  0
    1.9152   -0.1823   -0.6810 C   0  0  0  0  0  0  0  0  0  0  0  0
    2.2149    1.0685   -0.2972 C   0  0  0  0  0  0  0  0  0  0  0  0
    3.5840    1.7048   -0.3382 C   0  0  0  0  0  0  0  0  0  0  0  0
    4.5965    1.2688   -0.8502 O   0  0  0  0  0  0  0  0  0  0  0  0
    3.4331    2.8968    0.3509 N   0  0  0  0  0  0  0  0  0  0  0  0
    4.4713    3.8597    0.5926 C   0  0  0  0  0  0  0  0  0  0  0  0
    2.1095    3.0952    0.7564 C   0  0  0  0  0  0  0  0  0  0  0  0
    1.6950    4.1732    1.4326 N   0  0  0  0  0  0  0  0  0  0  0  0
    0.3856    4.1702    1.7017 C   0  0  0  0  0  0  0  0  0  0  0  0
   -0.4985    3.2247    1.3351 N   0  0  0  0  0  0  0  0  0  0  0  0
   -0.0191    2.1786    0.6154 C   0  0  0  0  0  0  0  0  0  0  0  0
   -1.0790    1.2943    0.1527 C   0  0  0  0  0  0  0  0  0  0  0  0
   -1.3289    0.7062   -1.0712 C   0  0  0  0  0  0  0  0  0  0  0  0
   -2.5290   -0.0612   -0.9731 C   0  0  0  0  0  0  0  0  0  0  0  0
   -3.1164   -0.8490   -2.0890 C   0  0  0  0  0  0  0  0  0  0  0  0
   -3.0181    0.1188    0.3126 C   0  0  0  0  0  0  0  0  0  0  0  0
   -4.1018   -0.3700    0.9762 N   0  0  0  0  0  0  0  0  0  0  0  0
   -4.7299    0.3451    2.1007 C   0  0  0  0  0  0  0  0  0  0  0  0
   -6.2405    0.0609    2.1391 C   0  0  0  0  0  0  0  0  0  0  0  0
   -6.5656   -1.3290    2.2827 O   0  0  0  0  0  0  0  0  0  0  0  0
   -5.5910   -2.2006    1.6900 C   0  0  0  0  0  0  0  0  0  0  0  0
   -4.8154   -1.5715    0.5201 C   0  0  0  0  0  0  0  0  0  0  0  0
   -2.1503    0.9723    0.9513 N   0  0  0  0  0  0  0  0  0  0  0  0
    1.3169    2.0380    0.3403 C   0  0  0  0  0  0  0  0  0  0  0  0
    3.8566   -1.7450   -0.5164 C   0  0  0  0  0  0  0  0  0  0  0  0
    6.0692   -4.3046   -0.6211 H   0  0  0  0  0  0  0  0  0  0  0  0
    6.7191   -2.6643   -0.3802 H   0  0  0  0  0  0  0  0  0  0  0  0
    5.5594   -3.3614    0.7785 H   0  0  0  0  0  0  0  0  0  0  0  0
    5.1755   -3.8097   -2.8833 H   0  0  0  0  0  0  0  0  0  0  0  0
    3.3554   -2.7994   -4.2118 H   0  0  0  0  0  0  0  0  0  0  0  0
    1.8563   -1.1173   -3.2022 H   0  0  0  0  0  0  0  0  0  0  0  0
    0.9138   -0.5805   -0.5516 H   0  0  0  0  0  0  0  0  0  0  0  0
    5.4264    3.4970    0.2024 H   0  0  0  0  0  0  0  0  0  0  0  0
    4.5680    4.0278    1.6694 H   0  0  0  0  0  0  0  0  0  0  0  0
    4.2177    4.7989    0.0920 H   0  0  0  0  0  0  0  0  0  0  0  0
   -0.0044    5.0130    2.2630 H   0  0  0  0  0  0  0  0  0  0  0  0
   -0.7136    0.8092   -1.9566 H   0  0  0  0  0  0  0  0  0  0  0  0
   -2.9934   -1.9213   -1.9102 H   0  0  0  0  0  0  0  0  0  0  0  0
   -4.1811   -0.6265   -2.2071 H   0  0  0  0  0  0  0  0  0  0  0  0
   -2.6247   -0.6118   -3.0385 H   0  0  0  0  0  0  0  0  0  0  0  0
   -4.2635    0.0074    3.0335 H   0  0  0  0  0  0  0  0  0  0  0  0
   -4.5862    1.4283    2.0118 H   0  0  0  0  0  0  0  0  0  0  0  0
   -6.7019    0.5936    2.9767 H   0  0  0  0  0  0  0  0  0  0  0  0
   -6.7191    0.4208    1.2205 H   0  0  0  0  0  0  0  0  0  0  0  0
   -4.8979   -2.5061    2.4829 H   0  0  0  0  0  0  0  0  0  0  0  0
   -6.1170   -3.0995    1.3529 H   0  0  0  0  0  0  0  0  0  0  0  0
   -4.1138   -2.3194    0.1359 H   0  0  0  0  0  0  0  0  0  0  0  0
   -5.5139   -1.2943   -0.2777 H   0  0  0  0  0  0  0  0  0  0  0  0
   -2.2539    1.2978    1.8995 H   0  0  0  0  0  0  0  0  0  0  0  0
    4.0087   -1.4386    0.5161 H   0  0  0  0  0  0  0  0  0  0  0  0
  1  2  1  0
  2  3  2  0
  3  4  1  0
  4  5  2  0
  5  6  1  0
  6  7  1  0
  7  8  2  3
  8  9  1  0
  9 10  2  0
  9 11  1  0
 11 12  1  0
 11 13  1  0
 13 14  2  0
 14 15  1  0
 15 16  2  0
 16 17  1  0
 17 18  1  0
 18 19  2  0
 19 20  1  0
 20 21  1  0
 20 22  2  0
 22 23  1  0
 23 24  1  0
 24 25  1  0
 25 26  1  0
 26 27  1  0
 27 28  1  0
 22 29  1  0
 17 30  2  0
  6 31  2  0
 31  2  1  0
 30  8  1  0
 30 13  1  0
 29 18  1  0
 28 23  1  0
  1 32  1  0
  1 33  1  0
  1 34  1  0
  3 35  1  0
  4 36  1  0
  5 37  1  0
  7 38  1  0
 12 39  1  0
 12 40  1  0
 12 41  1  0
 15 42  1  0
 19 43  1  0
 21 44  1  0
 21 45  1  0
 21 46  1  0
 24 47  1  0
 24 48  1  0
 25 49  1  0
 25 50  1  0
 27 51  1  0
 27 52  1  0
 28 53  1  0
 28 54  1  0
 29 55  1  0
 31 56  1  0
M  END
$$$$
