
     RDKit          3D

 39 41  0  0  0  0  0  0  0  0999 V2000
   -3.9209   -3.2869    1.0254 C   0  0  0  0  0  0  0  0  0  0  0  0
   -3.2297   -2.1757    0.3297 C   0  0  0  0  0  0  0  0  0  0  0  0
   -3.6747   -1.2736   -0.6064 C   0  0  0  0  0  0  0  0  0  0  0  0
   -2.5767   -0.4396   -0.9820 C   0  0  0  0  0  0  0  0  0  0  0  0
   -2.6605    0.5598   -2.0850 C   0  0  0  0  0  0  0  0  0  0  0  0
   -1.4909   -0.8052   -0.1832 C   0  0  0  0  0  0  0  0  0  0  0  0
   -0.1719   -0.3210   -0.0383 N   0  0  0  0  0  0  0  0  0  0  0  0
    0.8126   -1.1882    0.4760 C   0  0  0  0  0  0  0  0  0  0  0  0
    0.6446   -2.3804    0.7524 O   0  0  0  0  0  0  0  0  0  0  0  0
    2.1520   -0.6570    0.8175 C   0  0  0  0  0  0  0  0  0  0  0  0
    2.2957    0.3256    1.8078 C   0  0  0  0  0  0  0  0  0  0  0  0
    3.5692    0.7934    2.1318 C   0  0  0  0  0  0  0  0  0  0  0  0
    4.6826    0.2681    1.4788 C   0  0  0  0  0  0  0  0  0  0  0  0
    5.8964    0.7365    1.8051 F   0  0  0  0  0  0  0  0  0  0  0  0
    4.5404   -0.7281    0.5114 C   0  0  0  0  0  0  0  0  0  0  0  0
    5.9218   -1.3800   -0.2830 Cl  0  0  0  0  0  0  0  0  0  0  0  0
    3.2731   -1.2043    0.1828 C   0  0  0  0  0  0  0  0  0  0  0  0
    0.1398    0.9919   -0.4942 C   0  0  0  0  0  0  0  0  0  0  0  0
   -0.6952    2.0631   -0.1685 C   0  0  0  0  0  0  0  0  0  0  0  0
   -0.3530    3.3521   -0.5746 C   0  0  0  0  0  0  0  0  0  0  0  0
    0.8206    3.5496   -1.2866 C   0  0  0  0  0  0  0  0  0  0  0  0
    1.6106    2.4468   -1.5513 C   0  0  0  0  0  0  0  0  0  0  0  0
    1.3035    1.1898   -1.1607 N   0  0  0  0  0  0  0  0  0  0  0  0
   -1.9005   -1.9204    0.5253 N   0  0  0  0  0  0  0  0  0  0  0  0
   -3.5051   -4.2512    0.7163 H   0  0  0  0  0  0  0  0  0  0  0  0
   -3.8085   -3.1930    2.1099 H   0  0  0  0  0  0  0  0  0  0  0  0
   -4.9908   -3.2887    0.7949 H   0  0  0  0  0  0  0  0  0  0  0  0
   -4.6751   -1.2429   -1.0208 H   0  0  0  0  0  0  0  0  0  0  0  0
   -2.9924    1.5306   -1.7061 H   0  0  0  0  0  0  0  0  0  0  0  0
   -1.7027    0.6760   -2.5999 H   0  0  0  0  0  0  0  0  0  0  0  0
   -3.3870    0.2355   -2.8386 H   0  0  0  0  0  0  0  0  0  0  0  0
    1.4254    0.7251    2.3216 H   0  0  0  0  0  0  0  0  0  0  0  0
    3.7039    1.5607    2.8881 H   0  0  0  0  0  0  0  0  0  0  0  0
    3.1481   -1.9830   -0.5651 H   0  0  0  0  0  0  0  0  0  0  0  0
   -1.5968    1.9086    0.4166 H   0  0  0  0  0  0  0  0  0  0  0  0
   -0.9979    4.1918   -0.3308 H   0  0  0  0  0  0  0  0  0  0  0  0
    1.1168    4.5378   -1.6204 H   0  0  0  0  0  0  0  0  0  0  0  0
    2.5446    2.5452   -2.0981 H   0  0  0  0  0  0  0  0  0  0  0  0
   -1.2715   -2.4688    1.1020 H   0  0  0  0  0  0  0  0  0  0  0  0
  1  2  1  0
  2  3  2  0
  3  4  1  0
  4  5  1  0
  4  6  2  0
  6  7  1  0
  7  8  1  0
  8  9  2  0
  8 10  1  0
 10 11  1  0
 11 12  2  0
 12 13  1  0
 13 14  1  0
 13 15  2  0
 15 16  1  0
 15 17  1  0
  7 18  1  0
 18 19  2  0
 19 20  1  0
 20 21  2  0
 21 22  1  0
 22 23  2  0
  6 24  1  0
 24  2  1  0
 17 10  2  0
 23 18  1  0
  1 25  1  0
  1 26  1  0
  1 27  1  0
  3 28  1  0
  5 29  1  0
  5 30  1  0
  5 31  1  0
 11 32  1  0
 12 33  1  0
 17 34  1  0
 19 35  1  0
 20 36  1  0
 21 37  1  0
 22 38  1  0
 24 39  1  0
M  END
$$$$
