
     RDKit          3D

 43 46  0  0  0  0  0  0  0  0999 V2000
    7.7918    2.3147    1.4264 F   0  0  0  0  0  0  0  0  0  0  0  0
    6.8167    1.3956    1.4772 C   0  0  0  0  0  0  0  0  0  0  0  0
    6.6790    0.5090    0.4138 C   0  0  0  0  0  0  0  0  0  0  0  0
    5.6704   -0.4567    0.4418 C   0  0  0  0  0  0  0  0  0  0  0  0
    4.7980   -0.5409    1.5379 C   0  0  0  0  0  0  0  0  0  0  0  0
    3.6878   -1.5660    1.5645 C   0  0  0  0  0  0  0  0  0  0  0  0
    2.3590   -0.9463    1.4355 N   0  0  0  0  0  0  0  0  0  0  0  0
    1.9650   -0.9195    0.2548 N   0  0  0  0  0  0  0  0  0  0  0  0
    0.7672   -0.3075    0.2857 N   0  0  0  0  0  0  0  0  0  0  0  0
   -0.1208   -0.4834   -0.7891 C   0  0  0  0  0  0  0  0  0  0  0  0
    0.2849   -0.9575   -2.0354 C   0  0  0  0  0  0  0  0  0  0  0  0
   -0.6272   -1.0628   -3.0926 C   0  0  0  0  0  0  0  0  0  0  0  0
   -1.9537   -0.6796   -2.9604 C   0  0  0  0  0  0  0  0  0  0  0  0
   -2.7681   -0.8184   -4.0119 N   0  0  0  0  0  0  0  0  0  0  0  0
   -4.0402   -0.4383   -3.8482 C   0  0  0  0  0  0  0  0  0  0  0  0
   -4.5725    0.0697   -2.7333 N   0  0  0  0  0  0  0  0  0  0  0  0
   -3.7299    0.2201   -1.6867 C   0  0  0  0  0  0  0  0  0  0  0  0
   -4.3647    0.8094   -0.4971 C   0  0  0  0  0  0  0  0  0  0  0  0
   -4.0200    2.0965   -0.0497 C   0  0  0  0  0  0  0  0  0  0  0  0
   -4.6180    2.6437    1.0881 C   0  0  0  0  0  0  0  0  0  0  0  0
   -5.5752    1.9157    1.7911 C   0  0  0  0  0  0  0  0  0  0  0  0
   -5.9414    0.6450    1.3531 C   0  0  0  0  0  0  0  0  0  0  0  0
   -5.3431    0.0980    0.2152 C   0  0  0  0  0  0  0  0  0  0  0  0
   -2.3763   -0.1592   -1.7319 C   0  0  0  0  0  0  0  0  0  0  0  0
   -1.4492   -0.0633   -0.6572 C   0  0  0  0  0  0  0  0  0  0  0  0
    4.9489    0.3627    2.6026 C   0  0  0  0  0  0  0  0  0  0  0  0
    5.9575    1.3268    2.5706 C   0  0  0  0  0  0  0  0  0  0  0  0
    6.1216    2.4188    3.8900 Cl  0  0  0  0  0  0  0  0  0  0  0  0
    7.3561    0.5781   -0.4326 H   0  0  0  0  0  0  0  0  0  0  0  0
    5.5648   -1.1398   -0.3992 H   0  0  0  0  0  0  0  0  0  0  0  0
    3.7278   -2.1023    2.5208 H   0  0  0  0  0  0  0  0  0  0  0  0
    3.8479   -2.3292    0.7913 H   0  0  0  0  0  0  0  0  0  0  0  0
    0.3410   -0.2508    1.2043 H   0  0  0  0  0  0  0  0  0  0  0  0
    1.3166   -1.2546   -2.2044 H   0  0  0  0  0  0  0  0  0  0  0  0
   -0.2855   -1.4531   -4.0489 H   0  0  0  0  0  0  0  0  0  0  0  0
   -4.6987   -0.5483   -4.7044 H   0  0  0  0  0  0  0  0  0  0  0  0
   -3.2831    2.6847   -0.5947 H   0  0  0  0  0  0  0  0  0  0  0  0
   -4.3412    3.6420    1.4214 H   0  0  0  0  0  0  0  0  0  0  0  0
   -6.0438    2.3435    2.6738 H   0  0  0  0  0  0  0  0  0  0  0  0
   -6.6980    0.0792    1.8900 H   0  0  0  0  0  0  0  0  0  0  0  0
   -5.6449   -0.8914   -0.1220 H   0  0  0  0  0  0  0  0  0  0  0  0
   -1.7781    0.3405    0.2975 H   0  0  0  0  0  0  0  0  0  0  0  0
    4.2716    0.3164    3.4525 H   0  0  0  0  0  0  0  0  0  0  0  0
  1  2  1  0
  2  3  1  0
  3  4  2  0
  4  5  1  0
  5  6  1  0
  6  7  1  0
  7  8  2  0
  8  9  1  0
  9 10  1  0
 10 11  1  0
 11 12  2  0
 12 13  1  0
 13 14  2  0
 14 15  1  0
 15 16  2  0
 16 17  1  0
 17 18  1  0
 18 19  2  0
 19 20  1  0
 20 21  2  0
 21 22  1  0
 22 23  2  0
 17 24  2  0
 24 25  1  0
  5 26  2  0
 26 27  1  0
 27 28  1  0
 27  2  2  0
 25 10  2  0
 24 13  1  0
 23 18  1  0
  3 29  1  0
  4 30  1  0
  6 31  1  0
  6 32  1  0
  9 33  1  0
 11 34  1  0
 12 35  1  0
 15 36  1  0
 19 37  1  0
 20 38  1  0
 21 39  1  0
 22 40  1  0
 23 41  1  0
 25 42  1  0
 26 43  1  0
M  END
$$$$
