
     RDKit          3D

 33 34  0  0  0  0  0  0  0  0999 V2000
    5.5772   -0.8289   -1.7110 C   0  0  0  0  0  0  0  0  0  0  0  0
    4.8682   -1.0655   -0.5015 O   0  0  0  0  0  0  0  0  0  0  0  0
    3.5674   -0.6423   -0.4507 C   0  0  0  0  0  0  0  0  0  0  0  0
    2.8811    0.0142   -1.4666 C   0  0  0  0  0  0  0  0  0  0  0  0
    1.5438    0.4042   -1.3030 C   0  0  0  0  0  0  0  0  0  0  0  0
    0.8960    0.1233   -0.0832 C   0  0  0  0  0  0  0  0  0  0  0  0
    1.5714   -0.5420    0.9433 C   0  0  0  0  0  0  0  0  0  0  0  0
    0.6678   -0.6798    2.0182 C   0  0  0  0  0  0  0  0  0  0  0  0
   -0.5197   -0.1015    1.6386 C   0  0  0  0  0  0  0  0  0  0  0  0
   -0.4166    0.3808    0.3465 N   0  0  0  0  0  0  0  0  0  0  0  0
   -1.3951    1.0351   -0.4258 C   0  0  0  0  0  0  0  0  0  0  0  0
   -2.7219    1.2145   -0.2479 C   0  0  0  0  0  0  0  0  0  0  0  0
   -3.4634    1.9204   -1.1849 N   0  0  0  0  0  0  0  0  0  0  0  0
   -3.5046    0.6144    0.8354 C   0  0  0  0  0  0  0  0  0  0  0  0
   -3.8292    1.4819    1.9264 C   0  0  0  0  0  0  0  0  0  0  0  0
   -4.0968    2.1909    2.8036 N   0  0  0  0  0  0  0  0  0  0  0  0
   -3.9426   -0.6647    0.7976 C   0  0  0  0  0  0  0  0  0  0  0  0
   -3.6528   -1.5149   -0.3086 C   0  0  0  0  0  0  0  0  0  0  0  0
   -3.4145   -2.2112   -1.2054 N   0  0  0  0  0  0  0  0  0  0  0  0
   -4.7192   -1.2170    1.8554 C   0  0  0  0  0  0  0  0  0  0  0  0
   -5.3502   -1.6584    2.7222 N   0  0  0  0  0  0  0  0  0  0  0  0
    2.9155   -0.9217    0.7552 C   0  0  0  0  0  0  0  0  0  0  0  0
    5.6675    0.2437   -1.9119 H   0  0  0  0  0  0  0  0  0  0  0  0
    5.1095   -1.3516   -2.5519 H   0  0  0  0  0  0  0  0  0  0  0  0
    6.5878   -1.2308   -1.5901 H   0  0  0  0  0  0  0  0  0  0  0  0
    3.3561    0.2420   -2.4158 H   0  0  0  0  0  0  0  0  0  0  0  0
    1.0338    0.9061   -2.1191 H   0  0  0  0  0  0  0  0  0  0  0  0
    0.8707   -1.1342    2.9798 H   0  0  0  0  0  0  0  0  0  0  0  0
   -1.4093    0.0223    2.2316 H   0  0  0  0  0  0  0  0  0  0  0  0
   -0.9761    1.4537   -1.3368 H   0  0  0  0  0  0  0  0  0  0  0  0
   -4.2445    2.4542   -0.8033 H   0  0  0  0  0  0  0  0  0  0  0  0
   -2.9080    2.4989   -1.8146 H   0  0  0  0  0  0  0  0  0  0  0  0
    3.4508   -1.4361    1.5489 H   0  0  0  0  0  0  0  0  0  0  0  0
  1  2  1  0
  2  3  1  0
  3  4  2  0
  4  5  1  0
  5  6  2  0
  6  7  1  0
  7  8  1  0
  8  9  2  0
  9 10  1  0
 10 11  1  0
 11 12  2  3
 12 13  1  0
 12 14  1  0
 14 15  1  0
 15 16  3  0
 14 17  2  3
 17 18  1  0
 18 19  3  0
 17 20  1  0
 20 21  3  0
  7 22  2  0
 22  3  1  0
 10  6  1  0
  1 23  1  0
  1 24  1  0
  1 25  1  0
  4 26  1  0
  5 27  1  0
  8 28  1  0
  9 29  1  0
 11 30  1  0
 13 31  1  0
 13 32  1  0
 22 33  1  0
M  END
$$$$
