
     RDKit          3D

 37 38  0  0  0  0  0  0  0  0999 V2000
   -1.7077    2.8441    1.7655 C   0  0  0  0  0  0  0  0  0  0  0  0
   -1.0206    2.7425    0.4110 C   0  0  0  0  0  0  0  0  0  0  0  0
   -0.3594    1.4454    0.2156 N   0  0  0  0  0  0  0  0  0  0  0  0
    0.9921    1.3857    0.6021 C   0  0  0  0  0  0  0  0  0  0  0  0
    1.5000    2.2054    1.3715 O   0  0  0  0  0  0  0  0  0  0  0  0
    1.9168    0.4052   -0.0416 C   0  0  0  0  0  0  0  0  0  0  0  0
    1.7476   -0.0220   -1.3652 C   0  0  0  0  0  0  0  0  0  0  0  0
    2.6625   -0.9096   -1.9362 C   0  0  0  0  0  0  0  0  0  0  0  0
    3.7537   -1.3495   -1.1949 C   0  0  0  0  0  0  0  0  0  0  0  0
    4.6212   -2.2127   -1.7953 O   0  0  0  0  0  0  0  0  0  0  0  0
    3.9540   -0.9131    0.1109 C   0  0  0  0  0  0  0  0  0  0  0  0
    3.0380   -0.0277    0.6842 C   0  0  0  0  0  0  0  0  0  0  0  0
   -1.1035    0.2827   -0.0456 C   0  0  0  0  0  0  0  0  0  0  0  0
   -2.2236    0.3466   -0.8467 N   0  0  0  0  0  0  0  0  0  0  0  0
   -2.7676   -0.8976   -1.0278 C   0  0  0  0  0  0  0  0  0  0  0  0
   -3.9476   -1.1177   -1.8975 C   0  0  0  0  0  0  0  0  0  0  0  0
   -2.0298   -1.7723   -0.2655 C   0  0  0  0  0  0  0  0  0  0  0  0
   -0.9973   -1.0348    0.3887 C   0  0  0  0  0  0  0  0  0  0  0  0
   -0.0724   -1.6347    1.3892 C   0  0  0  0  0  0  0  0  0  0  0  0
   -0.9955    2.6964    2.5836 H   0  0  0  0  0  0  0  0  0  0  0  0
   -2.4947    2.0900    1.8680 H   0  0  0  0  0  0  0  0  0  0  0  0
   -2.1657    3.8309    1.8847 H   0  0  0  0  0  0  0  0  0  0  0  0
   -1.7415    2.9121   -0.3950 H   0  0  0  0  0  0  0  0  0  0  0  0
   -0.2753    3.5426    0.3253 H   0  0  0  0  0  0  0  0  0  0  0  0
    0.9124    0.3308   -1.9630 H   0  0  0  0  0  0  0  0  0  0  0  0
    2.5268   -1.2513   -2.9586 H   0  0  0  0  0  0  0  0  0  0  0  0
    5.3353   -2.4209   -1.1706 H   0  0  0  0  0  0  0  0  0  0  0  0
    4.8101   -1.2408    0.6919 H   0  0  0  0  0  0  0  0  0  0  0  0
    3.1961    0.3276    1.7007 H   0  0  0  0  0  0  0  0  0  0  0  0
   -2.5522    1.1830   -1.3049 H   0  0  0  0  0  0  0  0  0  0  0  0
   -4.8094   -0.5539   -1.5263 H   0  0  0  0  0  0  0  0  0  0  0  0
   -3.7364   -0.7945   -2.9218 H   0  0  0  0  0  0  0  0  0  0  0  0
   -4.2220   -2.1771   -1.9264 H   0  0  0  0  0  0  0  0  0  0  0  0
   -2.2236   -2.8331   -0.1612 H   0  0  0  0  0  0  0  0  0  0  0  0
    0.2984   -0.8891    2.0980 H   0  0  0  0  0  0  0  0  0  0  0  0
    0.7733   -2.1187    0.8928 H   0  0  0  0  0  0  0  0  0  0  0  0
   -0.5926   -2.4000    1.9761 H   0  0  0  0  0  0  0  0  0  0  0  0
  1  2  1  0
  2  3  1  0
  3  4  1  0
  4  5  2  0
  4  6  1  0
  6  7  1  0
  7  8  2  0
  8  9  1  0
  9 10  1  0
  9 11  2  0
 11 12  1  0
  3 13  1  0
 13 14  1  0
 14 15  1  0
 15 16  1  0
 15 17  2  0
 17 18  1  0
 18 19  1  0
 12  6  2  0
 18 13  2  0
  1 20  1  0
  1 21  1  0
  1 22  1  0
  2 23  1  0
  2 24  1  0
  7 25  1  0
  8 26  1  0
 10 27  1  0
 11 28  1  0
 12 29  1  0
 14 30  1  0
 16 31  1  0
 16 32  1  0
 16 33  1  0
 17 34  1  0
 19 35  1  0
 19 36  1  0
 19 37  1  0
M  END
$$$$
