
     RDKit          3D

 36 38  0  0  0  0  0  0  0  0999 V2000
   -1.3388   -2.2793    2.1726 C   0  0  0  0  0  0  0  0  0  0  0  0
   -0.6283   -1.3683    1.2365 C   0  0  0  0  0  0  0  0  0  0  0  0
    0.7610   -1.4189    0.9199 C   0  0  0  0  0  0  0  0  0  0  0  0
    1.0493   -0.4015    0.0351 C   0  0  0  0  0  0  0  0  0  0  0  0
    2.2090   -0.0320   -0.5718 N   0  0  0  0  0  0  0  0  0  0  0  0
    2.4041    1.2802   -1.2069 C   0  0  0  0  0  0  0  0  0  0  0  0
    3.8641    1.7391   -1.0536 C   0  0  0  0  0  0  0  0  0  0  0  0
    4.8214    0.8359   -1.6237 O   0  0  0  0  0  0  0  0  0  0  0  0
    4.4039   -0.5370   -1.5722 C   0  0  0  0  0  0  0  0  0  0  0  0
    3.4225   -0.8533   -0.4320 C   0  0  0  0  0  0  0  0  0  0  0  0
   -0.1344    0.2483   -0.2054 N   0  0  0  0  0  0  0  0  0  0  0  0
   -1.1670   -0.3124    0.5140 C   0  0  0  0  0  0  0  0  0  0  0  0
   -2.5331    0.1967    0.4196 C   0  0  0  0  0  0  0  0  0  0  0  0
   -2.8032    1.5530    0.6430 C   0  0  0  0  0  0  0  0  0  0  0  0
   -4.1086    2.0409    0.5457 C   0  0  0  0  0  0  0  0  0  0  0  0
   -5.1537    1.1773    0.2226 C   0  0  0  0  0  0  0  0  0  0  0  0
   -4.8955   -0.1738   -0.0015 C   0  0  0  0  0  0  0  0  0  0  0  0
   -3.5905   -0.6619    0.0973 C   0  0  0  0  0  0  0  0  0  0  0  0
   -1.9013   -3.0350    1.6154 H   0  0  0  0  0  0  0  0  0  0  0  0
   -2.0353   -1.7230    2.8081 H   0  0  0  0  0  0  0  0  0  0  0  0
   -0.6315   -2.7976    2.8283 H   0  0  0  0  0  0  0  0  0  0  0  0
    1.4744   -2.1283    1.3164 H   0  0  0  0  0  0  0  0  0  0  0  0
    1.7580    2.0432   -0.7584 H   0  0  0  0  0  0  0  0  0  0  0  0
    2.1512    1.1926   -2.2698 H   0  0  0  0  0  0  0  0  0  0  0  0
    4.0041    2.7119   -1.5356 H   0  0  0  0  0  0  0  0  0  0  0  0
    4.1144    1.8627    0.0069 H   0  0  0  0  0  0  0  0  0  0  0  0
    5.3054   -1.1502   -1.4745 H   0  0  0  0  0  0  0  0  0  0  0  0
    3.9487   -0.7774   -2.5403 H   0  0  0  0  0  0  0  0  0  0  0  0
    3.8906   -0.6371    0.5357 H   0  0  0  0  0  0  0  0  0  0  0  0
    3.1795   -1.9215   -0.4708 H   0  0  0  0  0  0  0  0  0  0  0  0
   -0.2497    1.0065   -0.8581 H   0  0  0  0  0  0  0  0  0  0  0  0
   -2.0015    2.2357    0.9134 H   0  0  0  0  0  0  0  0  0  0  0  0
   -4.3096    3.0933    0.7279 H   0  0  0  0  0  0  0  0  0  0  0  0
   -6.1697    1.5563    0.1480 H   0  0  0  0  0  0  0  0  0  0  0  0
   -5.7085   -0.8491   -0.2546 H   0  0  0  0  0  0  0  0  0  0  0  0
   -3.4014   -1.7161   -0.0903 H   0  0  0  0  0  0  0  0  0  0  0  0
  1  2  1  0
  2  3  1  0
  3  4  2  0
  4  5  1  0
  5  6  1  0
  6  7  1  0
  7  8  1  0
  8  9  1  0
  9 10  1  0
  4 11  1  0
 11 12  1  0
 12 13  1  0
 13 14  2  0
 14 15  1  0
 15 16  2  0
 16 17  1  0
 17 18  2  0
 12  2  2  0
 18 13  1  0
 10  5  1  0
  1 19  1  0
  1 20  1  0
  1 21  1  0
  3 22  1  0
  6 23  1  0
  6 24  1  0
  7 25  1  0
  7 26  1  0
  9 27  1  0
  9 28  1  0
 10 29  1  0
 10 30  1  0
 11 31  1  0
 14 32  1  0
 15 33  1  0
 16 34  1  0
 17 35  1  0
 18 36  1  0
M  END
$$$$
