
     RDKit          3D

 54 58  0  0  0  0  0  0  0  0999 V2000
    5.9662    2.9113    0.9632 C   0  0  0  0  0  0  0  0  0  0  0  0
    5.6153    2.6686   -0.3635 C   0  0  0  0  0  0  0  0  0  0  0  0
    5.5604    1.3565   -0.8427 C   0  0  0  0  0  0  0  0  0  0  0  0
    5.8459    0.2687   -0.0026 C   0  0  0  0  0  0  0  0  0  0  0  0
    5.7831   -1.1139   -0.5026 C   0  0  0  0  0  0  0  0  0  0  0  0
    6.9869   -1.7289   -0.5506 N   0  0  0  0  0  0  0  0  0  0  0  0
    6.9939   -2.9689   -1.0439 C   0  0  0  0  0  0  0  0  0  0  0  0
    5.9289   -3.6490   -1.4861 N   0  0  0  0  0  0  0  0  0  0  0  0
    4.7436   -3.0339   -1.4092 C   0  0  0  0  0  0  0  0  0  0  0  0
    3.6160   -3.7082   -1.8562 C   0  0  0  0  0  0  0  0  0  0  0  0
    2.3394   -3.1364   -1.7990 C   0  0  0  0  0  0  0  0  0  0  0  0
    2.1515   -1.8675   -1.2512 C   0  0  0  0  0  0  0  0  0  0  0  0
    0.8656   -1.2957   -1.2497 N   0  0  0  0  0  0  0  0  0  0  0  0
    0.6572   -0.1851   -0.5183 N   0  0  0  0  0  0  0  0  0  0  0  0
   -0.5601   -0.1679   -0.2545 N   0  0  0  0  0  0  0  0  0  0  0  0
   -0.9144    0.9962    0.5682 C   0  0  0  0  0  0  0  0  0  0  0  0
   -2.2811    0.8075    1.1287 C   0  0  0  0  0  0  0  0  0  0  0  0
   -2.7163    0.6550    2.4308 C   0  0  0  0  0  0  0  0  0  0  0  0
   -4.1308    0.5687    2.3984 C   0  0  0  0  0  0  0  0  0  0  0  0
   -4.5355    0.6303    1.0780 C   0  0  0  0  0  0  0  0  0  0  0  0
   -5.7686    0.6140    0.4864 N   0  0  0  0  0  0  0  0  0  0  0  0
   -5.9667   -0.2692   -0.6886 C   0  0  0  0  0  0  0  0  0  0  0  0
   -7.2931    0.0671   -1.3933 C   0  0  0  0  0  0  0  0  0  0  0  0
   -8.4132   -0.0227   -0.4931 O   0  0  0  0  0  0  0  0  0  0  0  0
   -8.2351    0.8963    0.5920 C   0  0  0  0  0  0  0  0  0  0  0  0
   -6.9516    0.5970    1.3844 C   0  0  0  0  0  0  0  0  0  0  0  0
   -3.3971    0.7885    0.3239 N   0  0  0  0  0  0  0  0  0  0  0  0
    3.2903   -1.1690   -0.8337 C   0  0  0  0  0  0  0  0  0  0  0  0
    4.5894   -1.7381   -0.9066 C   0  0  0  0  0  0  0  0  0  0  0  0
    6.2135    0.5350    1.3269 C   0  0  0  0  0  0  0  0  0  0  0  0
    6.2684    1.8458    1.8084 C   0  0  0  0  0  0  0  0  0  0  0  0
    6.0170    3.9335    1.3337 H   0  0  0  0  0  0  0  0  0  0  0  0
    5.3919    3.4997   -1.0297 H   0  0  0  0  0  0  0  0  0  0  0  0
    5.2995    1.1849   -1.8850 H   0  0  0  0  0  0  0  0  0  0  0  0
    7.9545   -3.4711   -1.0961 H   0  0  0  0  0  0  0  0  0  0  0  0
    3.7314   -4.7077   -2.2700 H   0  0  0  0  0  0  0  0  0  0  0  0
    1.4939   -3.7031   -2.1817 H   0  0  0  0  0  0  0  0  0  0  0  0
    0.0993   -1.9647   -1.2273 H   0  0  0  0  0  0  0  0  0  0  0  0
   -0.8932    1.9030   -0.0467 H   0  0  0  0  0  0  0  0  0  0  0  0
   -0.1947    1.1278    1.3848 H   0  0  0  0  0  0  0  0  0  0  0  0
   -2.0870    0.6300    3.3126 H   0  0  0  0  0  0  0  0  0  0  0  0
   -4.7807    0.4625    3.2566 H   0  0  0  0  0  0  0  0  0  0  0  0
   -5.9862   -1.3118   -0.3447 H   0  0  0  0  0  0  0  0  0  0  0  0
   -5.1511   -0.1626   -1.4168 H   0  0  0  0  0  0  0  0  0  0  0  0
   -7.2629    1.0738   -1.8280 H   0  0  0  0  0  0  0  0  0  0  0  0
   -7.4684   -0.6395   -2.2085 H   0  0  0  0  0  0  0  0  0  0  0  0
   -9.1088    0.8010    1.2504 H   0  0  0  0  0  0  0  0  0  0  0  0
   -8.2229    1.9185    0.1938 H   0  0  0  0  0  0  0  0  0  0  0  0
   -7.0311   -0.3942    1.8530 H   0  0  0  0  0  0  0  0  0  0  0  0
   -6.8507    1.3486    2.1756 H   0  0  0  0  0  0  0  0  0  0  0  0
   -3.3887    0.9122   -0.6785 H   0  0  0  0  0  0  0  0  0  0  0  0
    3.1705   -0.1676   -0.4255 H   0  0  0  0  0  0  0  0  0  0  0  0
    6.4612   -0.2860    1.9928 H   0  0  0  0  0  0  0  0  0  0  0  0
    6.5553    2.0335    2.8410 H   0  0  0  0  0  0  0  0  0  0  0  0
  1  2  2  0
  2  3  1  0
  3  4  2  0
  4  5  1  0
  5  6  1  0
  6  7  2  0
  7  8  1  0
  8  9  2  0
  9 10  1  0
 10 11  2  0
 11 12  1  0
 12 13  1  0
 13 14  1  0
 14 15  2  0
 15 16  1  0
 16 17  1  0
 17 18  2  0
 18 19  1  0
 19 20  2  0
 20 21  1  0
 21 22  1  0
 22 23  1  0
 23 24  1  0
 24 25  1  0
 25 26  1  0
 20 27  1  0
 12 28  2  0
 28 29  1  0
  4 30  1  0
 30 31  2  0
 31  1  1  0
 29  5  2  0
 29  9  1  0
 27 17  1  0
 26 21  1  0
  1 32  1  0
  2 33  1  0
  3 34  1  0
  7 35  1  0
 10 36  1  0
 11 37  1  0
 13 38  1  0
 16 39  1  0
 16 40  1  0
 18 41  1  0
 19 42  1  0
 22 43  1  0
 22 44  1  0
 23 45  1  0
 23 46  1  0
 25 47  1  0
 25 48  1  0
 26 49  1  0
 26 50  1  0
 27 51  1  0
 28 52  1  0
 30 53  1  0
 31 54  1  0
M  END
$$$$
