
     RDKit          3D

 41 43  0  0  0  0  0  0  0  0999 V2000
   -6.8750    0.3385    0.3227 O   0  0  0  0  0  0  0  0  0  0  0  0
   -5.7754    0.6635   -0.0868 C   0  0  0  0  0  0  0  0  0  0  0  0
   -5.6042    1.7653   -0.8359 O   0  0  0  0  0  0  0  0  0  0  0  0
   -4.5132   -0.0684    0.1708 C   0  0  0  0  0  0  0  0  0  0  0  0
   -4.5728   -1.2174    0.9670 C   0  0  0  0  0  0  0  0  0  0  0  0
   -3.4020   -1.9144    1.2265 C   0  0  0  0  0  0  0  0  0  0  0  0
   -3.3945   -3.0369    2.0126 O   0  0  0  0  0  0  0  0  0  0  0  0
   -2.1777   -1.4879    0.6995 C   0  0  0  0  0  0  0  0  0  0  0  0
   -1.0600   -2.2116    1.0338 O   0  0  0  0  0  0  0  0  0  0  0  0
   -2.0938   -0.3474   -0.1141 C   0  0  0  0  0  0  0  0  0  0  0  0
   -0.9115    0.1666   -0.6786 N   0  0  0  0  0  0  0  0  0  0  0  0
    0.0338   -0.8157   -1.2653 C   0  0  0  0  0  0  0  0  0  0  0  0
    1.3873   -0.8969   -0.5210 C   0  0  0  0  0  0  0  0  0  0  0  0
    2.0338    0.4294   -0.4300 N   0  0  0  0  0  0  0  0  0  0  0  0
    3.3961    0.5713   -0.2216 C   0  0  0  0  0  0  0  0  0  0  0  0
    4.0471    1.7976   -0.4473 C   0  0  0  0  0  0  0  0  0  0  0  0
    5.4243    1.9594   -0.2505 C   0  0  0  0  0  0  0  0  0  0  0  0
    6.1942    0.8859    0.1793 C   0  0  0  0  0  0  0  0  0  0  0  0
    5.5788   -0.3391    0.4043 C   0  0  0  0  0  0  0  0  0  0  0  0
    6.5211   -1.6786    0.9384 Cl  0  0  0  0  0  0  0  0  0  0  0  0
    4.2030   -0.4956    0.2045 C   0  0  0  0  0  0  0  0  0  0  0  0
    1.1209    1.5839   -0.2976 C   0  0  0  0  0  0  0  0  0  0  0  0
   -0.2742    1.1602    0.2177 C   0  0  0  0  0  0  0  0  0  0  0  0
   -3.2847    0.3597   -0.3578 C   0  0  0  0  0  0  0  0  0  0  0  0
   -6.5059    2.1379   -0.9272 H   0  0  0  0  0  0  0  0  0  0  0  0
   -5.5248   -1.5452    1.3745 H   0  0  0  0  0  0  0  0  0  0  0  0
   -4.3077   -3.2185    2.2977 H   0  0  0  0  0  0  0  0  0  0  0  0
   -1.3954   -2.9240    1.6144 H   0  0  0  0  0  0  0  0  0  0  0  0
    0.2333   -0.4753   -2.2901 H   0  0  0  0  0  0  0  0  0  0  0  0
   -0.4057   -1.8143   -1.3730 H   0  0  0  0  0  0  0  0  0  0  0  0
    2.0229   -1.5931   -1.0814 H   0  0  0  0  0  0  0  0  0  0  0  0
    1.2515   -1.2975    0.4891 H   0  0  0  0  0  0  0  0  0  0  0  0
    3.4877    2.6554   -0.8123 H   0  0  0  0  0  0  0  0  0  0  0  0
    5.8889    2.9230   -0.4417 H   0  0  0  0  0  0  0  0  0  0  0  0
    7.2623    1.0076    0.3322 H   0  0  0  0  0  0  0  0  0  0  0  0
    3.7654   -1.4674    0.4108 H   0  0  0  0  0  0  0  0  0  0  0  0
    1.0220    2.0692   -1.2760 H   0  0  0  0  0  0  0  0  0  0  0  0
    1.5188    2.3203    0.4110 H   0  0  0  0  0  0  0  0  0  0  0  0
   -0.1663    0.7489    1.2309 H   0  0  0  0  0  0  0  0  0  0  0  0
   -0.9076    2.0532    0.2857 H   0  0  0  0  0  0  0  0  0  0  0  0
   -3.2407    1.2484   -0.9844 H   0  0  0  0  0  0  0  0  0  0  0  0
  1  2  2  0
  2  3  1  0
  2  4  1  0
  4  5  1  0
  5  6  2  0
  6  7  1  0
  6  8  1  0
  8  9  1  0
  8 10  2  0
 10 11  1  0
 11 12  1  0
 12 13  1  0
 13 14  1  0
 14 15  1  0
 15 16  2  0
 16 17  1  0
 17 18  2  0
 18 19  1  0
 19 20  1  0
 19 21  2  0
 14 22  1  0
 22 23  1  0
 10 24  1  0
 24  4  2  0
 23 11  1  0
 21 15  1  0
  3 25  1  0
  5 26  1  0
  7 27  1  0
  9 28  1  0
 12 29  1  0
 12 30  1  0
 13 31  1  0
 13 32  1  0
 16 33  1  0
 17 34  1  0
 18 35  1  0
 21 36  1  0
 22 37  1  0
 22 38  1  0
 23 39  1  0
 23 40  1  0
 24 41  1  0
M  END
$$$$
