
     RDKit          3D

 39 41  0  0  0  0  0  0  0  0999 V2000
   -3.7585   -3.4434    1.0706 C   0  0  0  0  0  0  0  0  0  0  0  0
   -3.1507   -2.2598    0.4180 C   0  0  0  0  0  0  0  0  0  0  0  0
   -3.6935   -1.2866   -0.3859 C   0  0  0  0  0  0  0  0  0  0  0  0
   -2.6466   -0.3990   -0.7841 C   0  0  0  0  0  0  0  0  0  0  0  0
   -2.8474    0.6947   -1.7767 C   0  0  0  0  0  0  0  0  0  0  0  0
   -1.4854   -0.8123   -0.1270 C   0  0  0  0  0  0  0  0  0  0  0  0
   -0.1646   -0.3163   -0.0609 N   0  0  0  0  0  0  0  0  0  0  0  0
    0.8746   -1.2029    0.2868 C   0  0  0  0  0  0  0  0  0  0  0  0
    0.7464   -2.4193    0.4634 O   0  0  0  0  0  0  0  0  0  0  0  0
    2.2289   -0.6726    0.5677 C   0  0  0  0  0  0  0  0  0  0  0  0
    2.4349    0.2340    1.6166 C   0  0  0  0  0  0  0  0  0  0  0  0
    3.7237    0.6930    1.8894 C   0  0  0  0  0  0  0  0  0  0  0  0
    4.8003    0.2354    1.1269 C   0  0  0  0  0  0  0  0  0  0  0  0
    4.5876   -0.6862    0.0993 C   0  0  0  0  0  0  0  0  0  0  0  0
    5.9246   -1.2508   -0.8257 Cl  0  0  0  0  0  0  0  0  0  0  0  0
    3.3071   -1.1536   -0.1806 C   0  0  0  0  0  0  0  0  0  0  0  0
    0.0888    1.0339   -0.4340 C   0  0  0  0  0  0  0  0  0  0  0  0
   -0.7157    2.0605    0.0659 C   0  0  0  0  0  0  0  0  0  0  0  0
   -0.4265    3.3840   -0.2625 C   0  0  0  0  0  0  0  0  0  0  0  0
    0.6657    3.6583   -1.0722 C   0  0  0  0  0  0  0  0  0  0  0  0
    1.4306    2.5937   -1.5106 C   0  0  0  0  0  0  0  0  0  0  0  0
    1.1730    1.3040   -1.2005 N   0  0  0  0  0  0  0  0  0  0  0  0
   -1.8125   -1.9944    0.5126 N   0  0  0  0  0  0  0  0  0  0  0  0
   -3.5629   -3.4330    2.1476 H   0  0  0  0  0  0  0  0  0  0  0  0
   -4.8432   -3.4584    0.9240 H   0  0  0  0  0  0  0  0  0  0  0  0
   -3.3464   -4.3672    0.6520 H   0  0  0  0  0  0  0  0  0  0  0  0
   -4.7291   -1.2395   -0.7004 H   0  0  0  0  0  0  0  0  0  0  0  0
   -3.1475    1.6213   -1.2792 H   0  0  0  0  0  0  0  0  0  0  0  0
   -1.9465    0.8731   -2.3705 H   0  0  0  0  0  0  0  0  0  0  0  0
   -3.6431    0.4284   -2.4818 H   0  0  0  0  0  0  0  0  0  0  0  0
    1.5998    0.5801    2.2197 H   0  0  0  0  0  0  0  0  0  0  0  0
    3.8907    1.4023    2.6960 H   0  0  0  0  0  0  0  0  0  0  0  0
    5.8036    0.5946    1.3417 H   0  0  0  0  0  0  0  0  0  0  0  0
    3.1395   -1.8763   -0.9743 H   0  0  0  0  0  0  0  0  0  0  0  0
   -1.5502    1.8423    0.7253 H   0  0  0  0  0  0  0  0  0  0  0  0
   -1.0476    4.1903    0.1173 H   0  0  0  0  0  0  0  0  0  0  0  0
    0.9197    4.6753   -1.3490 H   0  0  0  0  0  0  0  0  0  0  0  0
    2.3023    2.7512   -2.1399 H   0  0  0  0  0  0  0  0  0  0  0  0
   -1.1241   -2.5786    0.9750 H   0  0  0  0  0  0  0  0  0  0  0  0
  1  2  1  0
  2  3  2  0
  3  4  1  0
  4  5  1  0
  4  6  2  0
  6  7  1  0
  7  8  1  0
  8  9  2  0
  8 10  1  0
 10 11  2  0
 11 12  1  0
 12 13  2  0
 13 14  1  0
 14 15  1  0
 14 16  2  0
  7 17  1  0
 17 18  2  0
 18 19  1  0
 19 20  2  0
 20 21  1  0
 21 22  2  0
  6 23  1  0
 23  2  1  0
 16 10  1  0
 22 17  1  0
  1 24  1  0
  1 25  1  0
  1 26  1  0
  3 27  1  0
  5 28  1  0
  5 29  1  0
  5 30  1  0
 11 31  1  0
 12 32  1  0
 13 33  1  0
 16 34  1  0
 18 35  1  0
 19 36  1  0
 20 37  1  0
 21 38  1  0
 23 39  1  0
M  END
$$$$
