
     RDKit          3D

 44 47  0  0  0  0  0  0  0  0999 V2000
   -5.7114   -1.2219    0.9168 C   0  0  0  0  0  0  0  0  0  0  0  0
   -4.6576   -1.0146   -0.1302 C   0  0  0  0  0  0  0  0  0  0  0  0
   -4.9812   -1.0972   -1.4890 C   0  0  0  0  0  0  0  0  0  0  0  0
   -4.0088   -0.8624   -2.4609 C   0  0  0  0  0  0  0  0  0  0  0  0
   -2.7073   -0.5310   -2.0825 C   0  0  0  0  0  0  0  0  0  0  0  0
   -2.3720   -0.4194   -0.7288 C   0  0  0  0  0  0  0  0  0  0  0  0
   -0.9851   -0.1139   -0.3600 C   0  0  0  0  0  0  0  0  0  0  0  0
   -0.5473    0.9467    0.3379 C   0  0  0  0  0  0  0  0  0  0  0  0
   -1.3786    2.1032    0.8429 C   0  0  0  0  0  0  0  0  0  0  0  0
   -2.5862    2.2314    0.7926 O   0  0  0  0  0  0  0  0  0  0  0  0
   -0.4571    2.9897    1.3765 N   0  0  0  0  0  0  0  0  0  0  0  0
   -0.7662    4.2597    1.9732 C   0  0  0  0  0  0  0  0  0  0  0  0
    0.8485    2.4989    1.2818 C   0  0  0  0  0  0  0  0  0  0  0  0
    1.9257    3.1484    1.7281 N   0  0  0  0  0  0  0  0  0  0  0  0
    3.0653    2.4751    1.5463 C   0  0  0  0  0  0  0  0  0  0  0  0
    3.1884    1.2506    0.9977 N   0  0  0  0  0  0  0  0  0  0  0  0
    2.0689    0.6228    0.5759 C   0  0  0  0  0  0  0  0  0  0  0  0
    2.1526   -0.6873    0.0495 N   0  0  0  0  0  0  0  0  0  0  0  0
    3.3033   -1.3905   -0.3740 C   0  0  0  0  0  0  0  0  0  0  0  0
    3.2697   -2.7958   -0.3955 C   0  0  0  0  0  0  0  0  0  0  0  0
    4.3592   -3.5356   -0.8633 C   0  0  0  0  0  0  0  0  0  0  0  0
    5.4848   -2.8745   -1.3388 C   0  0  0  0  0  0  0  0  0  0  0  0
    6.5190   -3.6019   -1.7856 F   0  0  0  0  0  0  0  0  0  0  0  0
    5.5260   -1.4844   -1.3618 C   0  0  0  0  0  0  0  0  0  0  0  0
    6.9072   -0.6589   -1.9764 Cl  0  0  0  0  0  0  0  0  0  0  0  0
    4.4353   -0.7466   -0.8941 C   0  0  0  0  0  0  0  0  0  0  0  0
    0.8473    1.2501    0.6832 C   0  0  0  0  0  0  0  0  0  0  0  0
   -3.3501   -0.6693    0.2414 C   0  0  0  0  0  0  0  0  0  0  0  0
   -6.4799   -1.9186    0.5659 H   0  0  0  0  0  0  0  0  0  0  0  0
   -5.2779   -1.6490    1.8273 H   0  0  0  0  0  0  0  0  0  0  0  0
   -6.1859   -0.2673    1.1640 H   0  0  0  0  0  0  0  0  0  0  0  0
   -5.9952   -1.3402   -1.7982 H   0  0  0  0  0  0  0  0  0  0  0  0
   -4.2673   -0.9309   -3.5142 H   0  0  0  0  0  0  0  0  0  0  0  0
   -1.9626   -0.3492   -2.8537 H   0  0  0  0  0  0  0  0  0  0  0  0
   -0.2840   -0.8425   -0.7562 H   0  0  0  0  0  0  0  0  0  0  0  0
   -0.2487    5.0534    1.4262 H   0  0  0  0  0  0  0  0  0  0  0  0
   -1.8431    4.4466    1.9358 H   0  0  0  0  0  0  0  0  0  0  0  0
   -0.4424    4.2576    3.0182 H   0  0  0  0  0  0  0  0  0  0  0  0
    3.9811    2.9548    1.8762 H   0  0  0  0  0  0  0  0  0  0  0  0
    1.5146   -1.2897    0.5622 H   0  0  0  0  0  0  0  0  0  0  0  0
    2.3923   -3.3327   -0.0419 H   0  0  0  0  0  0  0  0  0  0  0  0
    4.3339   -4.6210   -0.8655 H   0  0  0  0  0  0  0  0  0  0  0  0
    4.4745    0.3379   -0.9457 H   0  0  0  0  0  0  0  0  0  0  0  0
   -3.1020   -0.5805    1.2969 H   0  0  0  0  0  0  0  0  0  0  0  0
  1  2  1  0
  2  3  2  0
  3  4  1  0
  4  5  2  0
  5  6  1  0
  6  7  1  0
  7  8  2  3
  8  9  1  0
  9 10  2  0
  9 11  1  0
 11 12  1  0
 11 13  1  0
 13 14  2  0
 14 15  1  0
 15 16  2  0
 16 17  1  0
 17 18  1  0
 18 19  1  0
 19 20  1  0
 20 21  2  0
 21 22  1  0
 22 23  1  0
 22 24  2  0
 24 25  1  0
 24 26  1  0
 17 27  2  0
  6 28  2  0
 28  2  1  0
 27  8  1  0
 27 13  1  0
 26 19  2  0
  1 29  1  0
  1 30  1  0
  1 31  1  0
  3 32  1  0
  4 33  1  0
  5 34  1  0
  7 35  1  0
 12 36  1  0
 12 37  1  0
 12 38  1  0
 15 39  1  0
 18 40  1  0
 20 41  1  0
 21 42  1  0
 26 43  1  0
 28 44  1  0
M  END
$$$$
