
     RDKit          3D

 43 45  0  0  0  0  0  0  0  0999 V2000
    5.9215    1.7989   -0.3284 C   0  0  0  0  0  0  0  0  0  0  0  0
    5.3168    0.5440    0.2282 C   0  0  0  0  0  0  0  0  0  0  0  0
    6.0453   -0.2631    1.1133 C   0  0  0  0  0  0  0  0  0  0  0  0
    5.4857   -1.4302    1.6405 C   0  0  0  0  0  0  0  0  0  0  0  0
    4.1823   -1.7924    1.3056 C   0  0  0  0  0  0  0  0  0  0  0  0
    3.4358   -0.9708    0.4574 C   0  0  0  0  0  0  0  0  0  0  0  0
    2.0528   -1.3691    0.1035 C   0  0  0  0  0  0  0  0  0  0  0  0
    1.9514   -2.4634   -0.4475 O   0  0  0  0  0  0  0  0  0  0  0  0
    1.0058   -0.4727    0.4140 N   0  0  0  0  0  0  0  0  0  0  0  0
    1.2095    0.6273    1.3620 C   0  0  0  0  0  0  0  0  0  0  0  0
   -0.2488   -0.6813   -0.1913 C   0  0  0  0  0  0  0  0  0  0  0  0
   -0.7071   -1.6422   -1.0734 C   0  0  0  0  0  0  0  0  0  0  0  0
   -2.0655   -1.3693   -1.3712 C   0  0  0  0  0  0  0  0  0  0  0  0
   -2.4280   -0.2319   -0.6788 C   0  0  0  0  0  0  0  0  0  0  0  0
   -3.6951    0.4957   -0.6314 C   0  0  0  0  0  0  0  0  0  0  0  0
   -3.7065    1.8626   -0.9480 C   0  0  0  0  0  0  0  0  0  0  0  0
   -4.9014    2.5844   -0.9414 C   0  0  0  0  0  0  0  0  0  0  0  0
   -4.8361    3.9087   -1.2591 O   0  0  0  0  0  0  0  0  0  0  0  0
   -6.1131    1.9761   -0.6261 C   0  0  0  0  0  0  0  0  0  0  0  0
   -6.1291    0.6197   -0.3060 C   0  0  0  0  0  0  0  0  0  0  0  0
   -4.9236   -0.0998   -0.3095 C   0  0  0  0  0  0  0  0  0  0  0  0
   -4.9875   -1.4910    0.0839 N   0  0  0  0  0  0  0  0  0  0  0  0
   -5.4840   -2.2803   -0.7313 O   0  0  0  0  0  0  0  0  0  0  0  0
   -4.6012   -1.7707    1.2267 O   0  0  0  0  0  0  0  0  0  0  0  0
   -1.3144    0.1660    0.0284 N   0  0  0  0  0  0  0  0  0  0  0  0
    4.0019    0.1859   -0.0944 C   0  0  0  0  0  0  0  0  0  0  0  0
    5.5146    2.0220   -1.3203 H   0  0  0  0  0  0  0  0  0  0  0  0
    5.7125    2.6416    0.3377 H   0  0  0  0  0  0  0  0  0  0  0  0
    7.0060    1.6946   -0.4385 H   0  0  0  0  0  0  0  0  0  0  0  0
    7.0644    0.0047    1.3862 H   0  0  0  0  0  0  0  0  0  0  0  0
    6.0700   -2.0606    2.3064 H   0  0  0  0  0  0  0  0  0  0  0  0
    3.7490   -2.7086    1.6998 H   0  0  0  0  0  0  0  0  0  0  0  0
    0.3561    0.6898    2.0446 H   0  0  0  0  0  0  0  0  0  0  0  0
    2.0955    0.4810    1.9837 H   0  0  0  0  0  0  0  0  0  0  0  0
    1.3044    1.5618    0.8012 H   0  0  0  0  0  0  0  0  0  0  0  0
   -0.1372   -2.4711   -1.4730 H   0  0  0  0  0  0  0  0  0  0  0  0
   -2.6984   -1.9466   -2.0345 H   0  0  0  0  0  0  0  0  0  0  0  0
   -2.7880    2.3748   -1.2273 H   0  0  0  0  0  0  0  0  0  0  0  0
   -5.7341    4.2806   -1.2650 H   0  0  0  0  0  0  0  0  0  0  0  0
   -7.0429    2.5374   -0.6226 H   0  0  0  0  0  0  0  0  0  0  0  0
   -7.0673    0.1315   -0.0509 H   0  0  0  0  0  0  0  0  0  0  0  0
   -1.2935    0.9733    0.6318 H   0  0  0  0  0  0  0  0  0  0  0  0
    3.4217    0.7936   -0.7851 H   0  0  0  0  0  0  0  0  0  0  0  0
  1  2  1  0
  2  3  2  0
  3  4  1  0
  4  5  2  0
  5  6  1  0
  6  7  1  0
  7  8  2  0
  7  9  1  0
  9 10  1  0
  9 11  1  0
 11 12  2  0
 12 13  1  0
 13 14  2  0
 14 15  1  0
 15 16  1  0
 16 17  2  0
 17 18  1  0
 17 19  1  0
 19 20  2  0
 20 21  1  0
 21 22  1  0
 22 23  2  0
 22 24  1  0
 14 25  1  0
  6 26  2  0
 26  2  1  0
 25 11  1  0
 21 15  2  0
  1 27  1  0
  1 28  1  0
  1 29  1  0
  3 30  1  0
  4 31  1  0
  5 32  1  0
 10 33  1  0
 10 34  1  0
 10 35  1  0
 12 36  1  0
 13 37  1  0
 16 38  1  0
 18 39  1  0
 19 40  1  0
 20 41  1  0
 25 42  1  0
 26 43  1  0
M  CHG  2  22   1  24  -1
M  END
$$$$
