
     RDKit          3D

 22 23  0  0  0  0  0  0  0  0999 V2000
   -4.0576    2.3014    0.6485 Br  0  0  0  0  0  0  0  0  0  0  0  0
   -2.9440    0.8201    0.2718 C   0  0  0  0  0  0  0  0  0  0  0  0
   -3.5154   -0.4201   -0.0001 C   0  0  0  0  0  0  0  0  0  0  0  0
   -2.6920   -1.5094   -0.2753 C   0  0  0  0  0  0  0  0  0  0  0  0
   -1.3030   -1.3528   -0.2769 C   0  0  0  0  0  0  0  0  0  0  0  0
   -0.7113   -0.1069   -0.0047 C   0  0  0  0  0  0  0  0  0  0  0  0
    0.7523    0.0537   -0.0084 C   0  0  0  0  0  0  0  0  0  0  0  0
    1.5737   -0.7755    0.7737 C   0  0  0  0  0  0  0  0  0  0  0  0
    2.9630   -0.6230    0.7716 C   0  0  0  0  0  0  0  0  0  0  0  0
    3.5550    0.3620   -0.0147 C   0  0  0  0  0  0  0  0  0  0  0  0
    2.7595    1.1943   -0.7978 C   0  0  0  0  0  0  0  0  0  0  0  0
    1.3704    1.0412   -0.7938 C   0  0  0  0  0  0  0  0  0  0  0  0
   -1.5571    0.9806    0.2705 C   0  0  0  0  0  0  0  0  0  0  0  0
   -4.5945   -0.5474   -0.0005 H   0  0  0  0  0  0  0  0  0  0  0  0
   -3.1285   -2.4811   -0.4921 H   0  0  0  0  0  0  0  0  0  0  0  0
   -0.6778   -2.2143   -0.5061 H   0  0  0  0  0  0  0  0  0  0  0  0
    1.1316   -1.5440    1.4047 H   0  0  0  0  0  0  0  0  0  0  0  0
    3.5805   -1.2722    1.3867 H   0  0  0  0  0  0  0  0  0  0  0  0
    4.6352    0.4810   -0.0169 H   0  0  0  0  0  0  0  0  0  0  0  0
    3.2183    1.9625   -1.4148 H   0  0  0  0  0  0  0  0  0  0  0  0
    0.7692    1.6957   -1.4219 H   0  0  0  0  0  0  0  0  0  0  0  0
   -1.1275    1.9542    0.4965 H   0  0  0  0  0  0  0  0  0  0  0  0
  1  2  1  0
  2  3  1  0
  3  4  2  0
  4  5  1  0
  5  6  2  0
  6  7  1  0
  7  8  2  0
  8  9  1  0
  9 10  2  0
 10 11  1  0
 11 12  2  0
  6 13  1  0
 13  2  2  0
 12  7  1  0
  3 14  1  0
  4 15  1  0
  5 16  1  0
  8 17  1  0
  9 18  1  0
 10 19  1  0
 11 20  1  0
 12 21  1  0
 13 22  1  0
M  END
$$$$
