
     RDKit          3D

 60 63  0  0  0  0  0  0  0  0999 V2000
    2.4198    1.7447   -0.7355 C   0  0  0  0  0  0  0  0  0  0  0  0
    2.6391    0.4641   -0.0773 N   0  0  0  0  0  0  0  0  0  0  0  0
    2.6299   -0.6993   -0.9739 C   0  0  0  0  0  0  0  0  0  0  0  0
    1.4559   -0.8348   -1.9653 C   0  0  0  0  0  0  0  0  0  0  0  0
    0.1707   -1.1218   -1.3119 N   0  0  0  0  0  0  0  0  0  0  0  0
   -0.3508   -0.1073   -0.8067 N   0  0  0  0  0  0  0  0  0  0  0  0
   -1.5553   -0.4944   -0.3742 N   0  0  0  0  0  0  0  0  0  0  0  0
   -2.5065    0.4410    0.0314 C   0  0  0  0  0  0  0  0  0  0  0  0
   -2.2353    1.8110    0.0674 C   0  0  0  0  0  0  0  0  0  0  0  0
   -3.2401    2.7354    0.3535 C   0  0  0  0  0  0  0  0  0  0  0  0
   -4.5417    2.3433    0.6043 C   0  0  0  0  0  0  0  0  0  0  0  0
   -5.4499    3.2994    0.8245 N   0  0  0  0  0  0  0  0  0  0  0  0
   -6.7038    2.9017    1.0545 C   0  0  0  0  0  0  0  0  0  0  0  0
   -7.1333    1.6408    1.0641 N   0  0  0  0  0  0  0  0  0  0  0  0
   -6.2129    0.6835    0.8035 C   0  0  0  0  0  0  0  0  0  0  0  0
   -6.7898   -0.6789    0.7762 C   0  0  0  0  0  0  0  0  0  0  0  0
   -7.5975   -1.1218    1.8445 C   0  0  0  0  0  0  0  0  0  0  0  0
   -8.1867   -2.3936    1.8242 C   0  0  0  0  0  0  0  0  0  0  0  0
   -7.9876   -3.2397    0.7273 C   0  0  0  0  0  0  0  0  0  0  0  0
   -7.2117   -2.8060   -0.3444 C   0  0  0  0  0  0  0  0  0  0  0  0
   -6.9812   -3.8283   -1.7106 Cl  0  0  0  0  0  0  0  0  0  0  0  0
   -6.6228   -1.5382   -0.3289 C   0  0  0  0  0  0  0  0  0  0  0  0
   -4.8533    0.9801    0.5699 C   0  0  0  0  0  0  0  0  0  0  0  0
   -3.8147    0.0394    0.3127 C   0  0  0  0  0  0  0  0  0  0  0  0
    3.7585    0.4566    0.8881 C   0  0  0  0  0  0  0  0  0  0  0  0
    4.9866    1.3916    0.6793 C   0  0  0  0  0  0  0  0  0  0  0  0
    6.2580    0.8113    0.2382 N   0  0  0  0  0  0  0  0  0  0  0  0
    6.2327    0.1614   -1.0727 C   0  0  0  0  0  0  0  0  0  0  0  0
    6.3756   -1.3695   -0.9935 C   0  0  0  0  0  0  0  0  0  0  0  0
    7.5729   -1.8001   -0.3290 O   0  0  0  0  0  0  0  0  0  0  0  0
    8.0670   -0.8288    0.6027 C   0  0  0  0  0  0  0  0  0  0  0  0
    6.9373   -0.0176    1.2526 C   0  0  0  0  0  0  0  0  0  0  0  0
    3.1584    1.9507   -1.5144 H   0  0  0  0  0  0  0  0  0  0  0  0
    2.4443    2.5542    0.0008 H   0  0  0  0  0  0  0  0  0  0  0  0
    1.4262    1.7931   -1.1887 H   0  0  0  0  0  0  0  0  0  0  0  0
    3.5460   -0.6998   -1.5731 H   0  0  0  0  0  0  0  0  0  0  0  0
    2.6492   -1.6158   -0.3680 H   0  0  0  0  0  0  0  0  0  0  0  0
    1.6662   -1.6862   -2.6284 H   0  0  0  0  0  0  0  0  0  0  0  0
    1.3882    0.0441   -2.6143 H   0  0  0  0  0  0  0  0  0  0  0  0
   -1.7344   -1.4875   -0.3042 H   0  0  0  0  0  0  0  0  0  0  0  0
   -1.2357    2.1805   -0.1490 H   0  0  0  0  0  0  0  0  0  0  0  0
   -2.9927    3.7996    0.3441 H   0  0  0  0  0  0  0  0  0  0  0  0
   -7.4359    3.6793    1.2449 H   0  0  0  0  0  0  0  0  0  0  0  0
   -7.7689   -0.4786    2.7084 H   0  0  0  0  0  0  0  0  0  0  0  0
   -8.7777   -2.7308    2.6677 H   0  0  0  0  0  0  0  0  0  0  0  0
   -8.4412   -4.2285    0.7172 H   0  0  0  0  0  0  0  0  0  0  0  0
   -6.0509   -1.2076   -1.1938 H   0  0  0  0  0  0  0  0  0  0  0  0
   -4.0455   -1.0248    0.3296 H   0  0  0  0  0  0  0  0  0  0  0  0
    3.3013    0.7793    1.8353 H   0  0  0  0  0  0  0  0  0  0  0  0
    4.0788   -0.5730    1.0985 H   0  0  0  0  0  0  0  0  0  0  0  0
    5.1729    1.8941    1.6378 H   0  0  0  0  0  0  0  0  0  0  0  0
    4.7479    2.2289    0.0147 H   0  0  0  0  0  0  0  0  0  0  0  0
    7.0949    0.5490   -1.6305 H   0  0  0  0  0  0  0  0  0  0  0  0
    5.3576    0.4550   -1.6633 H   0  0  0  0  0  0  0  0  0  0  0  0
    6.3878   -1.7995   -2.0033 H   0  0  0  0  0  0  0  0  0  0  0  0
    5.5215   -1.8146   -0.4654 H   0  0  0  0  0  0  0  0  0  0  0  0
    8.6496   -1.3581    1.3617 H   0  0  0  0  0  0  0  0  0  0  0  0
    8.7649   -0.1726    0.0743 H   0  0  0  0  0  0  0  0  0  0  0  0
    7.3636    0.6459    2.0152 H   0  0  0  0  0  0  0  0  0  0  0  0
    6.2344   -0.7015    1.7329 H   0  0  0  0  0  0  0  0  0  0  0  0
  1  2  1  0
  2  3  1  0
  3  4  1  0
  4  5  1  0
  5  6  2  0
  6  7  1  0
  7  8  1  0
  8  9  1  0
  9 10  2  0
 10 11  1  0
 11 12  2  0
 12 13  1  0
 13 14  2  0
 14 15  1  0
 15 16  1  0
 16 17  2  0
 17 18  1  0
 18 19  2  0
 19 20  1  0
 20 21  1  0
 20 22  2  0
 15 23  2  0
 23 24  1  0
  2 25  1  0
 25 26  1  0
 26 27  1  0
 27 28  1  0
 28 29  1  0
 29 30  1  0
 30 31  1  0
 31 32  1  0
 24  8  2  0
 32 27  1  0
 23 11  1  0
 22 16  1  0
  1 33  1  0
  1 34  1  0
  1 35  1  0
  3 36  1  0
  3 37  1  0
  4 38  1  0
  4 39  1  0
  7 40  1  0
  9 41  1  0
 10 42  1  0
 13 43  1  0
 17 44  1  0
 18 45  1  0
 19 46  1  0
 22 47  1  0
 24 48  1  0
 25 49  1  0
 25 50  1  0
 26 51  1  0
 26 52  1  0
 28 53  1  0
 28 54  1  0
 29 55  1  0
 29 56  1  0
 31 57  1  0
 31 58  1  0
 32 59  1  0
 32 60  1  0
M  END
$$$$
