
     RDKit          3D

 37 39  0  0  0  0  0  0  0  0999 V2000
   -2.0196   -2.3981   -1.9489 C   0  0  0  0  0  0  0  0  0  0  0  0
   -1.0432   -1.5052   -1.2684 C   0  0  0  0  0  0  0  0  0  0  0  0
    0.3749   -1.6007   -1.3598 C   0  0  0  0  0  0  0  0  0  0  0  0
    0.9397   -0.5973   -0.5933 C   0  0  0  0  0  0  0  0  0  0  0  0
    2.3421   -0.2549   -0.3560 C   0  0  0  0  0  0  0  0  0  0  0  0
    3.2953   -0.4357   -1.3718 C   0  0  0  0  0  0  0  0  0  0  0  0
    4.6430   -0.1066   -1.1733 C   0  0  0  0  0  0  0  0  0  0  0  0
    5.0576    0.4038    0.0535 C   0  0  0  0  0  0  0  0  0  0  0  0
    6.3605    0.7595    0.2366 O   0  0  0  0  0  0  0  0  0  0  0  0
    4.1165    0.5676    1.0686 C   0  0  0  0  0  0  0  0  0  0  0  0
    4.5158    1.0809    2.3627 N   0  0  0  0  0  0  0  0  0  0  0  0
    5.3454    0.4287    3.0107 O   0  0  0  0  0  0  0  0  0  0  0  0
    3.9438    2.1097    2.7536 O   0  0  0  0  0  0  0  0  0  0  0  0
    2.7642    0.2501    0.8784 C   0  0  0  0  0  0  0  0  0  0  0  0
   -0.1129    0.1079   -0.0541 N   0  0  0  0  0  0  0  0  0  0  0  0
   -1.3214   -0.4250   -0.4432 C   0  0  0  0  0  0  0  0  0  0  0  0
   -2.5906    0.1362    0.0143 C   0  0  0  0  0  0  0  0  0  0  0  0
   -3.5425   -0.6792    0.6384 C   0  0  0  0  0  0  0  0  0  0  0  0
   -4.7524   -0.1415    1.0825 C   0  0  0  0  0  0  0  0  0  0  0  0
   -5.0121    1.2113    0.9016 C   0  0  0  0  0  0  0  0  0  0  0  0
   -6.2058    1.6940    1.3490 O   0  0  0  0  0  0  0  0  0  0  0  0
   -4.0811    2.0390    0.2831 C   0  0  0  0  0  0  0  0  0  0  0  0
   -2.8697    1.4993   -0.1594 C   0  0  0  0  0  0  0  0  0  0  0  0
   -1.5426   -2.9522   -2.7639 H   0  0  0  0  0  0  0  0  0  0  0  0
   -2.4302   -3.1239   -1.2400 H   0  0  0  0  0  0  0  0  0  0  0  0
   -2.8456   -1.8214   -2.3772 H   0  0  0  0  0  0  0  0  0  0  0  0
    0.9245   -2.3425   -1.9259 H   0  0  0  0  0  0  0  0  0  0  0  0
    2.9898   -0.8223   -2.3430 H   0  0  0  0  0  0  0  0  0  0  0  0
    5.3432   -0.2473   -1.9922 H   0  0  0  0  0  0  0  0  0  0  0  0
    6.8874    0.5020   -0.5391 H   0  0  0  0  0  0  0  0  0  0  0  0
    2.0608    0.3789    1.6977 H   0  0  0  0  0  0  0  0  0  0  0  0
   -0.0211    0.9118    0.5509 H   0  0  0  0  0  0  0  0  0  0  0  0
   -3.3441   -1.7368    0.7933 H   0  0  0  0  0  0  0  0  0  0  0  0
   -5.4871   -0.7767    1.5687 H   0  0  0  0  0  0  0  0  0  0  0  0
   -6.2513    2.6436    1.1509 H   0  0  0  0  0  0  0  0  0  0  0  0
   -4.2782    3.0955    0.1326 H   0  0  0  0  0  0  0  0  0  0  0  0
   -2.1531    2.1475   -0.6579 H   0  0  0  0  0  0  0  0  0  0  0  0
  1  2  1  0
  2  3  1  0
  3  4  2  0
  4  5  1  0
  5  6  1  0
  6  7  2  0
  7  8  1  0
  8  9  1  0
  8 10  2  0
 10 11  1  0
 11 12  2  0
 11 13  1  0
 10 14  1  0
  4 15  1  0
 15 16  1  0
 16 17  1  0
 17 18  1  0
 18 19  2  0
 19 20  1  0
 20 21  1  0
 20 22  2  0
 22 23  1  0
 16  2  2  0
 23 17  2  0
 14  5  2  0
  1 24  1  0
  1 25  1  0
  1 26  1  0
  3 27  1  0
  6 28  1  0
  7 29  1  0
  9 30  1  0
 14 31  1  0
 15 32  1  0
 18 33  1  0
 19 34  1  0
 21 35  1  0
 22 36  1  0
 23 37  1  0
M  CHG  2  11   1  13  -1
M  END
$$$$
