
     RDKit          3D

 38 40  0  0  0  0  0  0  0  0999 V2000
    2.9870   -2.4278   -0.8229 C   0  0  0  0  0  0  0  0  0  0  0  0
    2.0570   -1.5035   -0.1598 N   0  0  0  0  0  0  0  0  0  0  0  0
    2.7446   -0.4245    0.4638 C   0  0  0  0  0  0  0  0  0  0  0  0
    2.6471    0.8926   -0.0155 C   0  0  0  0  0  0  0  0  0  0  0  0
    3.3198    1.9419    0.6161 C   0  0  0  0  0  0  0  0  0  0  0  0
    4.1066    1.6887    1.7372 C   0  0  0  0  0  0  0  0  0  0  0  0
    4.2149    0.3874    2.2204 C   0  0  0  0  0  0  0  0  0  0  0  0
    5.1835    0.0711    3.6082 Cl  0  0  0  0  0  0  0  0  0  0  0  0
    3.5426   -0.6622    1.5933 C   0  0  0  0  0  0  0  0  0  0  0  0
    0.7934   -1.3862   -0.6694 C   0  0  0  0  0  0  0  0  0  0  0  0
    0.1543   -1.9832   -1.7360 C   0  0  0  0  0  0  0  0  0  0  0  0
   -1.1764   -1.4988   -1.7715 C   0  0  0  0  0  0  0  0  0  0  0  0
   -1.3439   -0.6178   -0.7165 C   0  0  0  0  0  0  0  0  0  0  0  0
   -2.5359    0.1254   -0.2931 C   0  0  0  0  0  0  0  0  0  0  0  0
   -3.7563   -0.5689   -0.2154 C   0  0  0  0  0  0  0  0  0  0  0  0
   -4.9287    0.0936    0.1543 C   0  0  0  0  0  0  0  0  0  0  0  0
   -6.1185   -0.5665    0.2400 O   0  0  0  0  0  0  0  0  0  0  0  0
   -4.9276    1.4527    0.4476 C   0  0  0  0  0  0  0  0  0  0  0  0
   -3.7359    2.1682    0.3757 C   0  0  0  0  0  0  0  0  0  0  0  0
   -2.5582    1.4975    0.0115 C   0  0  0  0  0  0  0  0  0  0  0  0
   -1.3511    2.2917   -0.0519 N   0  0  0  0  0  0  0  0  0  0  0  0
   -0.5259    2.1288    0.8583 O   0  0  0  0  0  0  0  0  0  0  0  0
   -1.2515    3.0985   -0.9850 O   0  0  0  0  0  0  0  0  0  0  0  0
   -0.1403   -0.5920   -0.0432 N   0  0  0  0  0  0  0  0  0  0  0  0
    3.8693   -2.6473   -0.2108 H   0  0  0  0  0  0  0  0  0  0  0  0
    3.3288   -2.0145   -1.7795 H   0  0  0  0  0  0  0  0  0  0  0  0
    2.5057   -3.3941   -1.0150 H   0  0  0  0  0  0  0  0  0  0  0  0
    2.0497    1.1113   -0.8983 H   0  0  0  0  0  0  0  0  0  0  0  0
    3.2246    2.9543    0.2314 H   0  0  0  0  0  0  0  0  0  0  0  0
    4.6270    2.5063    2.2282 H   0  0  0  0  0  0  0  0  0  0  0  0
    3.6194   -1.6682    1.9965 H   0  0  0  0  0  0  0  0  0  0  0  0
    0.5945   -2.6864   -2.4294 H   0  0  0  0  0  0  0  0  0  0  0  0
   -1.9323   -1.7654   -2.4994 H   0  0  0  0  0  0  0  0  0  0  0  0
   -3.7826   -1.6328   -0.4393 H   0  0  0  0  0  0  0  0  0  0  0  0
   -5.9806   -1.5036    0.0219 H   0  0  0  0  0  0  0  0  0  0  0  0
   -5.8530    1.9493    0.7288 H   0  0  0  0  0  0  0  0  0  0  0  0
   -3.7296    3.2327    0.5986 H   0  0  0  0  0  0  0  0  0  0  0  0
    0.0588   -0.0483    0.7876 H   0  0  0  0  0  0  0  0  0  0  0  0
  1  2  1  0
  2  3  1  0
  3  4  2  0
  4  5  1  0
  5  6  2  0
  6  7  1  0
  7  8  1  0
  7  9  2  0
  2 10  1  0
 10 11  2  0
 11 12  1  0
 12 13  2  0
 13 14  1  0
 14 15  1  0
 15 16  2  0
 16 17  1  0
 16 18  1  0
 18 19  2  0
 19 20  1  0
 20 21  1  0
 21 22  2  0
 21 23  1  0
 13 24  1  0
  9  3  1  0
 24 10  1  0
 20 14  2  0
  1 25  1  0
  1 26  1  0
  1 27  1  0
  4 28  1  0
  5 29  1  0
  6 30  1  0
  9 31  1  0
 11 32  1  0
 12 33  1  0
 15 34  1  0
 17 35  1  0
 18 36  1  0
 19 37  1  0
 24 38  1  0
M  CHG  2  21   1  23  -1
M  END
$$$$
