
     RDKit          3D

 56 60  0  0  0  0  0  0  0  0999 V2000
   -3.3833    4.4578    1.2056 C   0  0  0  0  0  0  0  0  0  0  0  0
   -3.1388    3.0297    1.5959 C   0  0  0  0  0  0  0  0  0  0  0  0
   -3.4899    2.5745    2.8730 C   0  0  0  0  0  0  0  0  0  0  0  0
   -3.2256    1.2579    3.2506 C   0  0  0  0  0  0  0  0  0  0  0  0
   -2.6014    0.3850    2.3584 C   0  0  0  0  0  0  0  0  0  0  0  0
   -2.2460    0.8187    1.0767 C   0  0  0  0  0  0  0  0  0  0  0  0
   -1.5210   -0.0492    0.1400 C   0  0  0  0  0  0  0  0  0  0  0  0
   -1.8920   -1.2547   -0.3218 C   0  0  0  0  0  0  0  0  0  0  0  0
   -3.1905   -1.9751   -0.0385 C   0  0  0  0  0  0  0  0  0  0  0  0
   -4.1002   -1.6202    0.6858 O   0  0  0  0  0  0  0  0  0  0  0  0
   -3.1197   -3.1356   -0.7935 N   0  0  0  0  0  0  0  0  0  0  0  0
   -4.1401   -4.1440   -0.8747 C   0  0  0  0  0  0  0  0  0  0  0  0
   -1.9209   -3.2162   -1.5081 C   0  0  0  0  0  0  0  0  0  0  0  0
   -1.5987   -4.2357   -2.3135 N   0  0  0  0  0  0  0  0  0  0  0  0
   -0.3962   -4.1113   -2.8884 C   0  0  0  0  0  0  0  0  0  0  0  0
    0.4675   -3.0956   -2.7108 N   0  0  0  0  0  0  0  0  0  0  0  0
    0.0805   -2.1018   -1.8779 C   0  0  0  0  0  0  0  0  0  0  0  0
    1.0831   -1.0600   -1.7268 C   0  0  0  0  0  0  0  0  0  0  0  0
    1.7784   -0.8724   -0.5532 N   0  0  0  0  0  0  0  0  0  0  0  0
    2.6366    0.1960   -0.6505 C   0  0  0  0  0  0  0  0  0  0  0  0
    3.3809    0.6327    0.4135 N   0  0  0  0  0  0  0  0  0  0  0  0
    4.4380    1.6426    0.1444 C   0  0  0  0  0  0  0  0  0  0  0  0
    4.9008    2.3134    1.4462 C   0  0  0  0  0  0  0  0  0  0  0  0
    5.3417    1.3470    2.4131 O   0  0  0  0  0  0  0  0  0  0  0  0
    4.2626    0.4555    2.7308 C   0  0  0  0  0  0  0  0  0  0  0  0
    3.7722   -0.3093    1.4905 C   0  0  0  0  0  0  0  0  0  0  0  0
    2.5131    0.6694   -1.9421 C   0  0  0  0  0  0  0  0  0  0  0  0
    1.5566   -0.1265   -2.6348 C   0  0  0  0  0  0  0  0  0  0  0  0
    1.1375    0.0347   -4.0518 C   0  0  0  0  0  0  0  0  0  0  0  0
   -1.1356   -2.1076   -1.2459 C   0  0  0  0  0  0  0  0  0  0  0  0
   -2.5003    2.1495    0.7106 C   0  0  0  0  0  0  0  0  0  0  0  0
   -3.4837    4.5596    0.1186 H   0  0  0  0  0  0  0  0  0  0  0  0
   -4.3107    4.8296    1.6543 H   0  0  0  0  0  0  0  0  0  0  0  0
   -2.5478    5.0824    1.5424 H   0  0  0  0  0  0  0  0  0  0  0  0
   -3.9722    3.2438    3.5814 H   0  0  0  0  0  0  0  0  0  0  0  0
   -3.5047    0.9085    4.2422 H   0  0  0  0  0  0  0  0  0  0  0  0
   -2.4033   -0.6367    2.6736 H   0  0  0  0  0  0  0  0  0  0  0  0
   -0.5932    0.4057   -0.1969 H   0  0  0  0  0  0  0  0  0  0  0  0
   -3.7261   -5.1076   -0.5629 H   0  0  0  0  0  0  0  0  0  0  0  0
   -4.5000   -4.2116   -1.9060 H   0  0  0  0  0  0  0  0  0  0  0  0
   -4.9801   -3.8898   -0.2220 H   0  0  0  0  0  0  0  0  0  0  0  0
   -0.0844   -4.9063   -3.5581 H   0  0  0  0  0  0  0  0  0  0  0  0
    1.6307   -1.4163    0.2822 H   0  0  0  0  0  0  0  0  0  0  0  0
    4.0765    2.4315   -0.5272 H   0  0  0  0  0  0  0  0  0  0  0  0
    5.2913    1.1401   -0.3338 H   0  0  0  0  0  0  0  0  0  0  0  0
    5.7433    2.9827    1.2374 H   0  0  0  0  0  0  0  0  0  0  0  0
    4.0953    2.9189    1.8845 H   0  0  0  0  0  0  0  0  0  0  0  0
    3.4454    1.0301    3.1869 H   0  0  0  0  0  0  0  0  0  0  0  0
    4.6281   -0.2547    3.4810 H   0  0  0  0  0  0  0  0  0  0  0  0
    2.9335   -0.9425    1.8046 H   0  0  0  0  0  0  0  0  0  0  0  0
    4.5763   -0.9587    1.1153 H   0  0  0  0  0  0  0  0  0  0  0  0
    3.0515    1.5075   -2.3623 H   0  0  0  0  0  0  0  0  0  0  0  0
    0.0481    0.1107   -4.1265 H   0  0  0  0  0  0  0  0  0  0  0  0
    1.4689   -0.8220   -4.6473 H   0  0  0  0  0  0  0  0  0  0  0  0
    1.5684    0.9407   -4.4906 H   0  0  0  0  0  0  0  0  0  0  0  0
   -2.2007    2.5054   -0.2738 H   0  0  0  0  0  0  0  0  0  0  0  0
  1  2  1  0
  2  3  2  0
  3  4  1  0
  4  5  2  0
  5  6  1  0
  6  7  1  0
  7  8  2  3
  8  9  1  0
  9 10  2  0
  9 11  1  0
 11 12  1  0
 11 13  1  0
 13 14  2  0
 14 15  1  0
 15 16  2  0
 16 17  1  0
 17 18  1  0
 18 19  1  0
 19 20  1  0
 20 21  1  0
 21 22  1  0
 22 23  1  0
 23 24  1  0
 24 25  1  0
 25 26  1  0
 20 27  2  0
 27 28  1  0
 28 29  1  0
 17 30  2  0
  6 31  2  0
 31  2  1  0
 30  8  1  0
 30 13  1  0
 28 18  2  0
 26 21  1  0
  1 32  1  0
  1 33  1  0
  1 34  1  0
  3 35  1  0
  4 36  1  0
  5 37  1  0
  7 38  1  0
 12 39  1  0
 12 40  1  0
 12 41  1  0
 15 42  1  0
 19 43  1  0
 22 44  1  0
 22 45  1  0
 23 46  1  0
 23 47  1  0
 25 48  1  0
 25 49  1  0
 26 50  1  0
 26 51  1  0
 27 52  1  0
 29 53  1  0
 29 54  1  0
 29 55  1  0
 31 56  1  0
M  END
$$$$
