
     RDKit          3D

 48 51  0  0  0  0  0  0  0  0999 V2000
    5.7588   -1.0304   -2.1837 C   0  0  0  0  0  0  0  0  0  0  0  0
    4.7746   -1.4238   -1.1225 C   0  0  0  0  0  0  0  0  0  0  0  0
    5.0870   -2.4310   -0.2028 C   0  0  0  0  0  0  0  0  0  0  0  0
    4.1868   -2.7667    0.8081 C   0  0  0  0  0  0  0  0  0  0  0  0
    2.9716   -2.0895    0.9159 C   0  0  0  0  0  0  0  0  0  0  0  0
    2.6536   -1.0626    0.0207 C   0  0  0  0  0  0  0  0  0  0  0  0
    1.3498   -0.3981    0.1300 C   0  0  0  0  0  0  0  0  0  0  0  0
    1.1216    0.9051    0.3624 C   0  0  0  0  0  0  0  0  0  0  0  0
    2.1639    1.9613    0.6486 C   0  0  0  0  0  0  0  0  0  0  0  0
    3.3731    1.8513    0.5952 O   0  0  0  0  0  0  0  0  0  0  0  0
    1.4345    3.0874    0.9935 N   0  0  0  0  0  0  0  0  0  0  0  0
    1.9874    4.3589    1.3702 C   0  0  0  0  0  0  0  0  0  0  0  0
    0.0579    2.8565    0.9157 C   0  0  0  0  0  0  0  0  0  0  0  0
   -0.8686    3.7778    1.1899 N   0  0  0  0  0  0  0  0  0  0  0  0
   -2.1191    3.3356    1.0358 C   0  0  0  0  0  0  0  0  0  0  0  0
   -2.4867    2.1069    0.6212 N   0  0  0  0  0  0  0  0  0  0  0  0
   -1.5095    1.2202    0.3051 C   0  0  0  0  0  0  0  0  0  0  0  0
   -1.8527   -0.0608   -0.1868 N   0  0  0  0  0  0  0  0  0  0  0  0
   -3.0896   -0.6168   -0.2225 C   0  0  0  0  0  0  0  0  0  0  0  0
   -4.1476   -0.0825    0.4670 N   0  0  0  0  0  0  0  0  0  0  0  0
   -5.2760   -0.8358    0.2696 C   0  0  0  0  0  0  0  0  0  0  0  0
   -6.5719   -0.4748    0.8908 C   0  0  0  0  0  0  0  0  0  0  0  0
   -4.9245   -1.8817   -0.5580 C   0  0  0  0  0  0  0  0  0  0  0  0
   -3.5409   -1.7504   -0.8748 C   0  0  0  0  0  0  0  0  0  0  0  0
   -2.7500   -2.6659   -1.7365 C   0  0  0  0  0  0  0  0  0  0  0  0
   -0.1875    1.5582    0.4999 C   0  0  0  0  0  0  0  0  0  0  0  0
    3.5563   -0.7400   -0.9998 C   0  0  0  0  0  0  0  0  0  0  0  0
    5.2430   -0.6760   -3.0823 H   0  0  0  0  0  0  0  0  0  0  0  0
    6.4112   -0.2342   -1.8122 H   0  0  0  0  0  0  0  0  0  0  0  0
    6.3766   -1.8846   -2.4802 H   0  0  0  0  0  0  0  0  0  0  0  0
    6.0366   -2.9574   -0.2666 H   0  0  0  0  0  0  0  0  0  0  0  0
    4.4351   -3.5525    1.5166 H   0  0  0  0  0  0  0  0  0  0  0  0
    2.2818   -2.3635    1.7107 H   0  0  0  0  0  0  0  0  0  0  0  0
    0.5252   -1.1000    0.0479 H   0  0  0  0  0  0  0  0  0  0  0  0
    1.6403    4.6230    2.3735 H   0  0  0  0  0  0  0  0  0  0  0  0
    3.0801    4.3141    1.3727 H   0  0  0  0  0  0  0  0  0  0  0  0
    1.6652    5.1206    0.6539 H   0  0  0  0  0  0  0  0  0  0  0  0
   -2.9193    4.0330    1.2619 H   0  0  0  0  0  0  0  0  0  0  0  0
   -1.2158   -0.3533   -0.9217 H   0  0  0  0  0  0  0  0  0  0  0  0
   -4.0813    0.7757    0.9990 H   0  0  0  0  0  0  0  0  0  0  0  0
   -6.4926   -0.4904    1.9825 H   0  0  0  0  0  0  0  0  0  0  0  0
   -7.3573   -1.1787    0.5977 H   0  0  0  0  0  0  0  0  0  0  0  0
   -6.8824    0.5278    0.5798 H   0  0  0  0  0  0  0  0  0  0  0  0
   -5.5929   -2.6609   -0.9029 H   0  0  0  0  0  0  0  0  0  0  0  0
   -2.3870   -2.1366   -2.6233 H   0  0  0  0  0  0  0  0  0  0  0  0
   -3.3529   -3.5159   -2.0716 H   0  0  0  0  0  0  0  0  0  0  0  0
   -1.8869   -3.0583   -1.1890 H   0  0  0  0  0  0  0  0  0  0  0  0
    3.3207    0.0596   -1.6988 H   0  0  0  0  0  0  0  0  0  0  0  0
  1  2  1  0
  2  3  2  0
  3  4  1  0
  4  5  2  0
  5  6  1  0
  6  7  1  0
  7  8  2  3
  8  9  1  0
  9 10  2  0
  9 11  1  0
 11 12  1  0
 11 13  1  0
 13 14  2  0
 14 15  1  0
 15 16  2  0
 16 17  1  0
 17 18  1  0
 18 19  1  0
 19 20  1  0
 20 21  1  0
 21 22  1  0
 21 23  2  0
 23 24  1  0
 24 25  1  0
 17 26  2  0
  6 27  2  0
 27  2  1  0
 26  8  1  0
 26 13  1  0
 24 19  2  0
  1 28  1  0
  1 29  1  0
  1 30  1  0
  3 31  1  0
  4 32  1  0
  5 33  1  0
  7 34  1  0
 12 35  1  0
 12 36  1  0
 12 37  1  0
 15 38  1  0
 18 39  1  0
 20 40  1  0
 22 41  1  0
 22 42  1  0
 22 43  1  0
 23 44  1  0
 25 45  1  0
 25 46  1  0
 25 47  1  0
 27 48  1  0
M  END
$$$$
