
     RDKit          3D

 40 42  0  0  0  0  0  0  0  0999 V2000
   -4.9629   -0.9495   -0.2412 C   0  0  0  0  0  0  0  0  0  0  0  0
   -3.5511   -1.3748   -0.0903 C   0  0  0  0  0  0  0  0  0  0  0  0
   -2.9849   -2.6259   -0.0197 C   0  0  0  0  0  0  0  0  0  0  0  0
   -1.5750   -2.4705    0.1390 C   0  0  0  0  0  0  0  0  0  0  0  0
   -0.6188   -3.6095    0.2175 C   0  0  0  0  0  0  0  0  0  0  0  0
   -1.3119   -1.1031    0.1610 C   0  0  0  0  0  0  0  0  0  0  0  0
   -0.1144   -0.3793    0.3140 N   0  0  0  0  0  0  0  0  0  0  0  0
    0.9072   -0.9160    1.1259 C   0  0  0  0  0  0  0  0  0  0  0  0
    0.7583   -1.7652    2.0047 O   0  0  0  0  0  0  0  0  0  0  0  0
    2.3035   -0.4582    0.8416 C   0  0  0  0  0  0  0  0  0  0  0  0
    2.8190   -0.5709   -0.4467 C   0  0  0  0  0  0  0  0  0  0  0  0
    4.1254   -0.1475   -0.6700 C   0  0  0  0  0  0  0  0  0  0  0  0
    4.8681    0.3590    0.3923 C   0  0  0  0  0  0  0  0  0  0  0  0
    4.2740    0.4245    1.6436 C   0  0  0  0  0  0  0  0  0  0  0  0
    3.0080    0.0324    1.8957 N   0  0  0  0  0  0  0  0  0  0  0  0
   -0.0700    0.9581   -0.2009 C   0  0  0  0  0  0  0  0  0  0  0  0
   -0.5575    1.2470   -1.4873 C   0  0  0  0  0  0  0  0  0  0  0  0
   -0.5045    2.5470   -1.9947 C   0  0  0  0  0  0  0  0  0  0  0  0
    0.0359    3.5658   -1.2214 C   0  0  0  0  0  0  0  0  0  0  0  0
    0.0670    4.8189   -1.7549 O   0  0  0  0  0  0  0  0  0  0  0  0
    0.5261    3.3075    0.0530 C   0  0  0  0  0  0  0  0  0  0  0  0
    0.4737    2.0053    0.5600 C   0  0  0  0  0  0  0  0  0  0  0  0
   -2.5314   -0.4674    0.0240 N   0  0  0  0  0  0  0  0  0  0  0  0
   -5.6250   -1.8152   -0.3431 H   0  0  0  0  0  0  0  0  0  0  0  0
   -5.2869   -0.3754    0.6327 H   0  0  0  0  0  0  0  0  0  0  0  0
   -5.0836   -0.3241   -1.1315 H   0  0  0  0  0  0  0  0  0  0  0  0
   -3.5229   -3.5644   -0.0754 H   0  0  0  0  0  0  0  0  0  0  0  0
   -0.4728   -3.9187    1.2567 H   0  0  0  0  0  0  0  0  0  0  0  0
   -1.0035   -4.4730   -0.3362 H   0  0  0  0  0  0  0  0  0  0  0  0
    0.3497   -3.3515   -0.2213 H   0  0  0  0  0  0  0  0  0  0  0  0
    2.2240   -0.9840   -1.2540 H   0  0  0  0  0  0  0  0  0  0  0  0
    4.5635   -0.2188   -1.6618 H   0  0  0  0  0  0  0  0  0  0  0  0
    5.8915    0.6896    0.2502 H   0  0  0  0  0  0  0  0  0  0  0  0
    4.8203    0.8047    2.5025 H   0  0  0  0  0  0  0  0  0  0  0  0
   -0.9550    0.4558   -2.1201 H   0  0  0  0  0  0  0  0  0  0  0  0
   -0.8764    2.7608   -2.9930 H   0  0  0  0  0  0  0  0  0  0  0  0
    0.4685    5.4241   -1.1094 H   0  0  0  0  0  0  0  0  0  0  0  0
    0.9455    4.0976    0.6683 H   0  0  0  0  0  0  0  0  0  0  0  0
    0.8343    1.8303    1.5725 H   0  0  0  0  0  0  0  0  0  0  0  0
   -2.6553    0.5346    0.0546 H   0  0  0  0  0  0  0  0  0  0  0  0
  1  2  1  0
  2  3  2  0
  3  4  1  0
  4  5  1  0
  4  6  2  0
  6  7  1  0
  7  8  1  0
  8  9  2  0
  8 10  1  0
 10 11  2  0
 11 12  1  0
 12 13  2  0
 13 14  1  0
 14 15  2  0
  7 16  1  0
 16 17  1  0
 17 18  2  0
 18 19  1  0
 19 20  1  0
 19 21  2  0
 21 22  1  0
  6 23  1  0
 23  2  1  0
 15 10  1  0
 22 16  2  0
  1 24  1  0
  1 25  1  0
  1 26  1  0
  3 27  1  0
  5 28  1  0
  5 29  1  0
  5 30  1  0
 11 31  1  0
 12 32  1  0
 13 33  1  0
 14 34  1  0
 17 35  1  0
 18 36  1  0
 20 37  1  0
 21 38  1  0
 22 39  1  0
 23 40  1  0
M  END
$$$$
