
     RDKit          3D

 41 43  0  0  0  0  0  0  0  0999 V2000
   -3.3779   -4.1878   -0.1000 C   0  0  0  0  0  0  0  0  0  0  0  0
   -2.9641   -2.7651   -0.0984 C   0  0  0  0  0  0  0  0  0  0  0  0
   -3.6807   -1.6097   -0.2951 C   0  0  0  0  0  0  0  0  0  0  0  0
   -2.7918   -0.4992   -0.1507 C   0  0  0  0  0  0  0  0  0  0  0  0
   -3.2566    0.9159   -0.1956 C   0  0  0  0  0  0  0  0  0  0  0  0
   -1.5141   -1.0201    0.0684 C   0  0  0  0  0  0  0  0  0  0  0  0
   -0.2330   -0.4467    0.2346 N   0  0  0  0  0  0  0  0  0  0  0  0
    0.8036   -1.2370    0.7853 C   0  0  0  0  0  0  0  0  0  0  0  0
    0.6540   -2.3579    1.2824 O   0  0  0  0  0  0  0  0  0  0  0  0
    2.2050   -0.7457    0.7358 C   0  0  0  0  0  0  0  0  0  0  0  0
    2.7930   -0.3466   -0.4702 C   0  0  0  0  0  0  0  0  0  0  0  0
    4.1191    0.0880   -0.4836 C   0  0  0  0  0  0  0  0  0  0  0  0
    4.8616    0.1036    0.6981 C   0  0  0  0  0  0  0  0  0  0  0  0
    4.2859   -0.3240    1.8952 C   0  0  0  0  0  0  0  0  0  0  0  0
    2.9599   -0.7574    1.9149 C   0  0  0  0  0  0  0  0  0  0  0  0
   -0.0653    0.9237   -0.1094 C   0  0  0  0  0  0  0  0  0  0  0  0
   -0.3665    1.3703   -1.4051 C   0  0  0  0  0  0  0  0  0  0  0  0
   -0.1526    2.7031   -1.7614 C   0  0  0  0  0  0  0  0  0  0  0  0
    0.3652    3.5902   -0.8259 C   0  0  0  0  0  0  0  0  0  0  0  0
    0.5583    4.8818   -1.2161 O   0  0  0  0  0  0  0  0  0  0  0  0
    0.6751    3.1686    0.4628 C   0  0  0  0  0  0  0  0  0  0  0  0
    0.4630    1.8337    0.8185 C   0  0  0  0  0  0  0  0  0  0  0  0
   -1.6751   -2.3909    0.1626 N   0  0  0  0  0  0  0  0  0  0  0  0
   -4.4352   -4.2887   -0.3648 H   0  0  0  0  0  0  0  0  0  0  0  0
   -3.2320   -4.6319    0.8899 H   0  0  0  0  0  0  0  0  0  0  0  0
   -2.7912   -4.7592   -0.8264 H   0  0  0  0  0  0  0  0  0  0  0  0
   -4.7452   -1.5576   -0.4885 H   0  0  0  0  0  0  0  0  0  0  0  0
   -4.3179    0.9791    0.0705 H   0  0  0  0  0  0  0  0  0  0  0  0
   -3.1487    1.3292   -1.2022 H   0  0  0  0  0  0  0  0  0  0  0  0
   -2.7160    1.5418    0.5195 H   0  0  0  0  0  0  0  0  0  0  0  0
    2.2306   -0.3767   -1.3996 H   0  0  0  0  0  0  0  0  0  0  0  0
    4.5761    0.4077   -1.4170 H   0  0  0  0  0  0  0  0  0  0  0  0
    5.8964    0.4380    0.6833 H   0  0  0  0  0  0  0  0  0  0  0  0
    4.8727   -0.3279    2.8104 H   0  0  0  0  0  0  0  0  0  0  0  0
    2.5162   -1.1064    2.8446 H   0  0  0  0  0  0  0  0  0  0  0  0
   -0.7549    0.6775   -2.1481 H   0  0  0  0  0  0  0  0  0  0  0  0
   -0.3865    3.0451   -2.7655 H   0  0  0  0  0  0  0  0  0  0  0  0
    0.9165    5.3839   -0.4658 H   0  0  0  0  0  0  0  0  0  0  0  0
    1.0782    3.8558    1.1998 H   0  0  0  0  0  0  0  0  0  0  0  0
    0.6914    1.5163    1.8329 H   0  0  0  0  0  0  0  0  0  0  0  0
   -0.9163   -3.0168    0.4104 H   0  0  0  0  0  0  0  0  0  0  0  0
  1  2  1  0
  2  3  2  0
  3  4  1  0
  4  5  1  0
  4  6  2  0
  6  7  1  0
  7  8  1  0
  8  9  2  0
  8 10  1  0
 10 11  2  0
 11 12  1  0
 12 13  2  0
 13 14  1  0
 14 15  2  0
  7 16  1  0
 16 17  1  0
 17 18  2  0
 18 19  1  0
 19 20  1  0
 19 21  2  0
 21 22  1  0
  6 23  1  0
 23  2  1  0
 15 10  1  0
 22 16  2  0
  1 24  1  0
  1 25  1  0
  1 26  1  0
  3 27  1  0
  5 28  1  0
  5 29  1  0
  5 30  1  0
 11 31  1  0
 12 32  1  0
 13 33  1  0
 14 34  1  0
 15 35  1  0
 17 36  1  0
 18 37  1  0
 20 38  1  0
 21 39  1  0
 22 40  1  0
 23 41  1  0
M  END
$$$$
