
     RDKit          3D

 33 35  0  0  0  0  0  0  0  0999 V2000
    4.1544    2.8604   -0.3526 C   0  0  0  0  0  0  0  0  0  0  0  0
    4.1383    1.3988   -0.4257 N   0  0  0  0  0  0  0  0  0  0  0  0
    3.0128    0.9413   -0.1565 N   0  0  0  0  0  0  0  0  0  0  0  0
    3.1310   -0.3958   -0.2486 N   0  0  0  0  0  0  0  0  0  0  0  0
    1.9743   -1.1745   -0.4194 C   0  0  0  0  0  0  0  0  0  0  0  0
    2.0984   -2.5203   -0.7638 C   0  0  0  0  0  0  0  0  0  0  0  0
    0.9663   -3.3343   -0.8881 C   0  0  0  0  0  0  0  0  0  0  0  0
   -0.3132   -2.8545   -0.6504 C   0  0  0  0  0  0  0  0  0  0  0  0
   -1.3453   -3.6909   -0.8025 N   0  0  0  0  0  0  0  0  0  0  0  0
   -2.5652   -3.1946   -0.5670 C   0  0  0  0  0  0  0  0  0  0  0  0
   -2.8476   -1.9473   -0.1855 N   0  0  0  0  0  0  0  0  0  0  0  0
   -1.7902   -1.1199   -0.0185 C   0  0  0  0  0  0  0  0  0  0  0  0
   -2.1662    0.2299    0.4346 C   0  0  0  0  0  0  0  0  0  0  0  0
   -2.9456    1.0651   -0.3827 C   0  0  0  0  0  0  0  0  0  0  0  0
   -3.3073    2.3475    0.0374 C   0  0  0  0  0  0  0  0  0  0  0  0
   -2.9015    2.8117    1.2865 C   0  0  0  0  0  0  0  0  0  0  0  0
   -2.1407    1.9934    2.1185 C   0  0  0  0  0  0  0  0  0  0  0  0
   -1.7799    0.7109    1.6976 C   0  0  0  0  0  0  0  0  0  0  0  0
   -0.4626   -1.5190   -0.2583 C   0  0  0  0  0  0  0  0  0  0  0  0
    0.6898   -0.6923   -0.1453 C   0  0  0  0  0  0  0  0  0  0  0  0
    3.9025    3.2060    0.6555 H   0  0  0  0  0  0  0  0  0  0  0  0
    3.4516    3.2972   -1.0700 H   0  0  0  0  0  0  0  0  0  0  0  0
    5.1575    3.2226   -0.5957 H   0  0  0  0  0  0  0  0  0  0  0  0
    3.9540   -0.7134   -0.7491 H   0  0  0  0  0  0  0  0  0  0  0  0
    3.0779   -2.9558   -0.9455 H   0  0  0  0  0  0  0  0  0  0  0  0
    1.0913   -4.3763   -1.1756 H   0  0  0  0  0  0  0  0  0  0  0  0
   -3.4035   -3.8702   -0.6970 H   0  0  0  0  0  0  0  0  0  0  0  0
   -3.2782    0.7102   -1.3565 H   0  0  0  0  0  0  0  0  0  0  0  0
   -3.9104    2.9793   -0.6094 H   0  0  0  0  0  0  0  0  0  0  0  0
   -3.1859    3.8079    1.6151 H   0  0  0  0  0  0  0  0  0  0  0  0
   -1.8328    2.3494    3.0982 H   0  0  0  0  0  0  0  0  0  0  0  0
   -1.1974    0.0804    2.3669 H   0  0  0  0  0  0  0  0  0  0  0  0
    0.5733    0.3473    0.1534 H   0  0  0  0  0  0  0  0  0  0  0  0
  1  2  1  0
  2  3  2  0
  3  4  1  0
  4  5  1  0
  5  6  1  0
  6  7  2  0
  7  8  1  0
  8  9  2  0
  9 10  1  0
 10 11  2  0
 11 12  1  0
 12 13  1  0
 13 14  2  0
 14 15  1  0
 15 16  2  0
 16 17  1  0
 17 18  2  0
 12 19  2  0
 19 20  1  0
 20  5  2  0
 19  8  1  0
 18 13  1  0
  1 21  1  0
  1 22  1  0
  1 23  1  0
  4 24  1  0
  6 25  1  0
  7 26  1  0
 10 27  1  0
 14 28  1  0
 15 29  1  0
 16 30  1  0
 17 31  1  0
 18 32  1  0
 20 33  1  0
M  END
$$$$
