
     RDKit          3D

 44 47  0  0  0  0  0  0  0  0999 V2000
   -5.6552    0.9013   -1.4888 C   0  0  0  0  0  0  0  0  0  0  0  0
   -4.6649    0.8530   -0.3633 C   0  0  0  0  0  0  0  0  0  0  0  0
   -5.0462    1.2105    0.9350 C   0  0  0  0  0  0  0  0  0  0  0  0
   -4.1168    1.1857    1.9747 C   0  0  0  0  0  0  0  0  0  0  0  0
   -2.7960    0.8117    1.7238 C   0  0  0  0  0  0  0  0  0  0  0  0
   -2.3960    0.4548    0.4314 C   0  0  0  0  0  0  0  0  0  0  0  0
   -0.9875    0.1239    0.1864 C   0  0  0  0  0  0  0  0  0  0  0  0
   -0.4973   -1.0314   -0.2916 C   0  0  0  0  0  0  0  0  0  0  0  0
   -1.2821   -2.2801   -0.6205 C   0  0  0  0  0  0  0  0  0  0  0  0
   -2.4881   -2.4294   -0.6038 O   0  0  0  0  0  0  0  0  0  0  0  0
   -0.3198   -3.2232   -0.9442 N   0  0  0  0  0  0  0  0  0  0  0  0
   -0.5767   -4.5862   -1.3189 C   0  0  0  0  0  0  0  0  0  0  0  0
    0.9708   -2.6901   -0.8773 C   0  0  0  0  0  0  0  0  0  0  0  0
    2.0797   -3.3814   -1.1496 N   0  0  0  0  0  0  0  0  0  0  0  0
    3.1967   -2.6570   -1.0385 C   0  0  0  0  0  0  0  0  0  0  0  0
    3.2716   -1.3523   -0.7115 N   0  0  0  0  0  0  0  0  0  0  0  0
    2.1219   -0.6872   -0.4622 C   0  0  0  0  0  0  0  0  0  0  0  0
    2.1536    0.6980   -0.1789 N   0  0  0  0  0  0  0  0  0  0  0  0
    3.2658    1.5017    0.1622 C   0  0  0  0  0  0  0  0  0  0  0  0
    4.3841    0.9989    0.8405 C   0  0  0  0  0  0  0  0  0  0  0  0
    5.4381    1.8363    1.2213 C   0  0  0  0  0  0  0  0  0  0  0  0
    5.3769    3.2007    0.9506 C   0  0  0  0  0  0  0  0  0  0  0  0
    4.2554    3.7200    0.3117 C   0  0  0  0  0  0  0  0  0  0  0  0
    4.1601    5.4096   -0.0062 Cl  0  0  0  0  0  0  0  0  0  0  0  0
    3.2025    2.8847   -0.0687 C   0  0  0  0  0  0  0  0  0  0  0  0
    0.9181   -1.3553   -0.5121 C   0  0  0  0  0  0  0  0  0  0  0  0
   -3.3316    0.4948   -0.6101 C   0  0  0  0  0  0  0  0  0  0  0  0
   -5.4293    0.1369   -2.2400 H   0  0  0  0  0  0  0  0  0  0  0  0
   -6.6707    0.7089   -1.1263 H   0  0  0  0  0  0  0  0  0  0  0  0
   -5.6310    1.8856   -1.9664 H   0  0  0  0  0  0  0  0  0  0  0  0
   -6.0720    1.5044    1.1447 H   0  0  0  0  0  0  0  0  0  0  0  0
   -4.4224    1.4562    2.9813 H   0  0  0  0  0  0  0  0  0  0  0  0
   -2.0850    0.7979    2.5462 H   0  0  0  0  0  0  0  0  0  0  0  0
   -0.3187    0.9280    0.4793 H   0  0  0  0  0  0  0  0  0  0  0  0
   -0.0785   -5.2566   -0.6124 H   0  0  0  0  0  0  0  0  0  0  0  0
   -0.1956   -4.7625   -2.3291 H   0  0  0  0  0  0  0  0  0  0  0  0
   -1.6512   -4.7898   -1.3044 H   0  0  0  0  0  0  0  0  0  0  0  0
    4.1359   -3.1637   -1.2355 H   0  0  0  0  0  0  0  0  0  0  0  0
    1.5326    1.1807   -0.8224 H   0  0  0  0  0  0  0  0  0  0  0  0
    4.4493   -0.0576    1.0892 H   0  0  0  0  0  0  0  0  0  0  0  0
    6.3006    1.4194    1.7353 H   0  0  0  0  0  0  0  0  0  0  0  0
    6.1956    3.8500    1.2479 H   0  0  0  0  0  0  0  0  0  0  0  0
    2.3326    3.3208   -0.5520 H   0  0  0  0  0  0  0  0  0  0  0  0
   -3.0296    0.2295   -1.6212 H   0  0  0  0  0  0  0  0  0  0  0  0
  1  2  1  0
  2  3  2  0
  3  4  1  0
  4  5  2  0
  5  6  1  0
  6  7  1  0
  7  8  2  3
  8  9  1  0
  9 10  2  0
  9 11  1  0
 11 12  1  0
 11 13  1  0
 13 14  2  0
 14 15  1  0
 15 16  2  0
 16 17  1  0
 17 18  1  0
 18 19  1  0
 19 20  2  0
 20 21  1  0
 21 22  2  0
 22 23  1  0
 23 24  1  0
 23 25  2  0
 17 26  2  0
  6 27  2  0
 27  2  1  0
 26  8  1  0
 26 13  1  0
 25 19  1  0
  1 28  1  0
  1 29  1  0
  1 30  1  0
  3 31  1  0
  4 32  1  0
  5 33  1  0
  7 34  1  0
 12 35  1  0
 12 36  1  0
 12 37  1  0
 15 38  1  0
 18 39  1  0
 20 40  1  0
 21 41  1  0
 22 42  1  0
 25 43  1  0
 27 44  1  0
M  END
$$$$
