
     RDKit          3D

 29 30  0  0  0  0  0  0  0  0999 V2000
    3.9078   -1.4813   -0.4167 C   0  0  0  0  0  0  0  0  0  0  0  0
    3.6167   -0.0532   -0.4049 N   0  0  0  0  0  0  0  0  0  0  0  0
    4.4828    0.7815    0.4092 C   0  0  0  0  0  0  0  0  0  0  0  0
    2.3123    0.3782   -0.4343 N   0  0  0  0  0  0  0  0  0  0  0  0
    1.5357   -0.4219   -0.9925 N   0  0  0  0  0  0  0  0  0  0  0  0
    0.2315    0.0950   -0.9829 C   0  0  0  0  0  0  0  0  0  0  0  0
   -0.1674    1.0589   -1.9031 C   0  0  0  0  0  0  0  0  0  0  0  0
   -1.4786    1.5405   -1.8892 C   0  0  0  0  0  0  0  0  0  0  0  0
   -2.4218    1.0792   -0.9808 C   0  0  0  0  0  0  0  0  0  0  0  0
   -3.6491    1.6040   -1.0446 N   0  0  0  0  0  0  0  0  0  0  0  0
   -4.5563    1.1598   -0.1705 C   0  0  0  0  0  0  0  0  0  0  0  0
   -4.3476    0.2345    0.7603 N   0  0  0  0  0  0  0  0  0  0  0  0
   -3.0959   -0.2891    0.8096 C   0  0  0  0  0  0  0  0  0  0  0  0
   -2.9018   -1.3400    1.8698 C   0  0  0  0  0  0  0  0  0  0  0  0
   -1.9206   -2.0352    2.0608 O   0  0  0  0  0  0  0  0  0  0  0  0
   -3.9822   -1.4769    2.6695 O   0  0  0  0  0  0  0  0  0  0  0  0
   -2.0508    0.0968   -0.0518 C   0  0  0  0  0  0  0  0  0  0  0  0
   -0.7104   -0.3882   -0.0709 C   0  0  0  0  0  0  0  0  0  0  0  0
    4.9848   -1.6246   -0.5462 H   0  0  0  0  0  0  0  0  0  0  0  0
    3.5907   -1.9216    0.5330 H   0  0  0  0  0  0  0  0  0  0  0  0
    3.4017   -1.9720   -1.2526 H   0  0  0  0  0  0  0  0  0  0  0  0
    4.3324    0.5376    1.4647 H   0  0  0  0  0  0  0  0  0  0  0  0
    5.5244    0.6018    0.1284 H   0  0  0  0  0  0  0  0  0  0  0  0
    4.2476    1.8355    0.2333 H   0  0  0  0  0  0  0  0  0  0  0  0
    0.5454    1.4401   -2.6303 H   0  0  0  0  0  0  0  0  0  0  0  0
   -1.7696    2.3000   -2.6126 H   0  0  0  0  0  0  0  0  0  0  0  0
   -5.5494    1.5921   -0.2272 H   0  0  0  0  0  0  0  0  0  0  0  0
   -3.7365   -2.1829    3.3003 H   0  0  0  0  0  0  0  0  0  0  0  0
   -0.3758   -1.1485    0.6306 H   0  0  0  0  0  0  0  0  0  0  0  0
  1  2  1  0
  2  3  1  0
  2  4  1  0
  4  5  2  0
  5  6  1  0
  6  7  1  0
  7  8  2  0
  8  9  1  0
  9 10  2  0
 10 11  1  0
 11 12  2  0
 12 13  1  0
 13 14  1  0
 14 15  2  0
 14 16  1  0
 13 17  2  0
 17 18  1  0
 18  6  2  0
 17  9  1  0
  1 19  1  0
  1 20  1  0
  1 21  1  0
  3 22  1  0
  3 23  1  0
  3 24  1  0
  7 25  1  0
  8 26  1  0
 11 27  1  0
 16 28  1  0
 18 29  1  0
M  END
$$$$
