
     RDKit          3D

 45 48  0  0  0  0  0  0  0  0999 V2000
    5.4606    0.6543    1.9158 C   0  0  0  0  0  0  0  0  0  0  0  0
    4.5705   -0.0198    0.9146 C   0  0  0  0  0  0  0  0  0  0  0  0
    5.1180   -0.7870   -0.1199 C   0  0  0  0  0  0  0  0  0  0  0  0
    4.2897   -1.3795   -1.0731 C   0  0  0  0  0  0  0  0  0  0  0  0
    2.9075   -1.2001   -1.0073 C   0  0  0  0  0  0  0  0  0  0  0  0
    2.3455   -0.4172    0.0062 C   0  0  0  0  0  0  0  0  0  0  0  0
    0.8884   -0.2726    0.0746 C   0  0  0  0  0  0  0  0  0  0  0  0
    0.1833    0.8608   -0.0664 C   0  0  0  0  0  0  0  0  0  0  0  0
    0.7305    2.2461   -0.3096 C   0  0  0  0  0  0  0  0  0  0  0  0
    1.8879    2.5705   -0.4916 O   0  0  0  0  0  0  0  0  0  0  0  0
   -0.3821    3.0724   -0.2781 N   0  0  0  0  0  0  0  0  0  0  0  0
   -0.3711    4.4977   -0.4546 C   0  0  0  0  0  0  0  0  0  0  0  0
   -1.5596    2.3455   -0.0757 C   0  0  0  0  0  0  0  0  0  0  0  0
   -2.7755    2.8942   -0.0098 N   0  0  0  0  0  0  0  0  0  0  0  0
   -3.7506    2.0001    0.1795 C   0  0  0  0  0  0  0  0  0  0  0  0
   -3.6040    0.6634    0.2815 N   0  0  0  0  0  0  0  0  0  0  0  0
   -2.3541    0.1539    0.1941 C   0  0  0  0  0  0  0  0  0  0  0  0
   -2.1879   -1.2467    0.2233 N   0  0  0  0  0  0  0  0  0  0  0  0
   -2.2108   -1.7734   -1.1684 C   0  0  0  0  0  0  0  0  0  0  0  0
   -2.5791   -3.2646   -1.1661 C   0  0  0  0  0  0  0  0  0  0  0  0
   -3.8962   -3.5190   -0.6524 O   0  0  0  0  0  0  0  0  0  0  0  0
   -4.3258   -2.5419    0.3121 C   0  0  0  0  0  0  0  0  0  0  0  0
   -3.1632   -1.9326    1.1095 C   0  0  0  0  0  0  0  0  0  0  0  0
   -1.2749    0.9949    0.0302 C   0  0  0  0  0  0  0  0  0  0  0  0
    3.1815    0.1655    0.9662 C   0  0  0  0  0  0  0  0  0  0  0  0
    5.7256    1.6566    1.5657 H   0  0  0  0  0  0  0  0  0  0  0  0
    6.3796    0.0796    2.0718 H   0  0  0  0  0  0  0  0  0  0  0  0
    4.9619    0.7380    2.8872 H   0  0  0  0  0  0  0  0  0  0  0  0
    6.1945   -0.9237   -0.1910 H   0  0  0  0  0  0  0  0  0  0  0  0
    4.7226   -1.9760   -1.8716 H   0  0  0  0  0  0  0  0  0  0  0  0
    2.2759   -1.6667   -1.7587 H   0  0  0  0  0  0  0  0  0  0  0  0
    0.3784   -1.2128    0.2673 H   0  0  0  0  0  0  0  0  0  0  0  0
    0.6529    4.8577   -0.5883 H   0  0  0  0  0  0  0  0  0  0  0  0
   -0.9570    4.7575   -1.3413 H   0  0  0  0  0  0  0  0  0  0  0  0
   -0.8037    4.9766    0.4288 H   0  0  0  0  0  0  0  0  0  0  0  0
   -4.7628    2.3844    0.2531 H   0  0  0  0  0  0  0  0  0  0  0  0
   -1.2256   -1.6426   -1.6291 H   0  0  0  0  0  0  0  0  0  0  0  0
   -2.9489   -1.2353   -1.7793 H   0  0  0  0  0  0  0  0  0  0  0  0
   -2.5427   -3.6646   -2.1843 H   0  0  0  0  0  0  0  0  0  0  0  0
   -1.8662   -3.8379   -0.5619 H   0  0  0  0  0  0  0  0  0  0  0  0
   -4.8877   -1.7687   -0.2233 H   0  0  0  0  0  0  0  0  0  0  0  0
   -5.0244   -3.0422    0.9902 H   0  0  0  0  0  0  0  0  0  0  0  0
   -3.5345   -1.2796    1.9089 H   0  0  0  0  0  0  0  0  0  0  0  0
   -2.6183   -2.7447    1.6071 H   0  0  0  0  0  0  0  0  0  0  0  0
    2.7523    0.7795    1.7551 H   0  0  0  0  0  0  0  0  0  0  0  0
  1  2  1  0
  2  3  2  0
  3  4  1  0
  4  5  2  0
  5  6  1  0
  6  7  1  0
  7  8  2  3
  8  9  1  0
  9 10  2  0
  9 11  1  0
 11 12  1  0
 11 13  1  0
 13 14  1  0
 14 15  2  0
 15 16  1  0
 16 17  2  0
 17 18  1  0
 18 19  1  0
 19 20  1  0
 20 21  1  0
 21 22  1  0
 22 23  1  0
 17 24  1  0
  6 25  2  0
 25  2  1  0
 24  8  1  0
 24 13  2  0
 23 18  1  0
  1 26  1  0
  1 27  1  0
  1 28  1  0
  3 29  1  0
  4 30  1  0
  5 31  1  0
  7 32  1  0
 12 33  1  0
 12 34  1  0
 12 35  1  0
 15 36  1  0
 19 37  1  0
 19 38  1  0
 20 39  1  0
 20 40  1  0
 22 41  1  0
 22 42  1  0
 23 43  1  0
 23 44  1  0
 25 45  1  0
M  END
$$$$
