
     RDKit          3D

 44 47  0  0  0  0  0  0  0  0999 V2000
    7.4901   -0.9213    3.7428 O   0  0  0  0  0  0  0  0  0  0  0  0
    6.6553   -0.5647    2.7230 C   0  0  0  0  0  0  0  0  0  0  0  0
    6.2147    0.7473    2.5706 C   0  0  0  0  0  0  0  0  0  0  0  0
    5.3570    1.0677    1.5147 C   0  0  0  0  0  0  0  0  0  0  0  0
    4.9470    0.0811    0.6062 C   0  0  0  0  0  0  0  0  0  0  0  0
    4.0069    0.4173   -0.5262 C   0  0  0  0  0  0  0  0  0  0  0  0
    2.6284    0.0192   -0.2070 N   0  0  0  0  0  0  0  0  0  0  0  0
    1.8962    0.0412   -1.2120 N   0  0  0  0  0  0  0  0  0  0  0  0
    0.6792   -0.3385   -0.7834 N   0  0  0  0  0  0  0  0  0  0  0  0
   -0.4453   -0.0621   -1.5789 C   0  0  0  0  0  0  0  0  0  0  0  0
   -0.3531    0.2541   -2.9356 C   0  0  0  0  0  0  0  0  0  0  0  0
   -1.5048    0.4674   -3.7033 C   0  0  0  0  0  0  0  0  0  0  0  0
   -2.7769    0.3507   -3.1642 C   0  0  0  0  0  0  0  0  0  0  0  0
   -3.8292    0.5814   -3.9566 N   0  0  0  0  0  0  0  0  0  0  0  0
   -5.0403    0.4653   -3.4008 C   0  0  0  0  0  0  0  0  0  0  0  0
   -5.2975    0.1338   -2.1329 N   0  0  0  0  0  0  0  0  0  0  0  0
   -4.2225   -0.1154   -1.3524 C   0  0  0  0  0  0  0  0  0  0  0  0
   -4.5715   -0.5039    0.0238 C   0  0  0  0  0  0  0  0  0  0  0  0
   -4.3220   -1.8048    0.4998 C   0  0  0  0  0  0  0  0  0  0  0  0
   -4.6545   -2.1651    1.8084 C   0  0  0  0  0  0  0  0  0  0  0  0
   -5.2483   -1.2331    2.6585 C   0  0  0  0  0  0  0  0  0  0  0  0
   -5.5184    0.0570    2.1992 C   0  0  0  0  0  0  0  0  0  0  0  0
   -5.1857    0.4168    0.8907 C   0  0  0  0  0  0  0  0  0  0  0  0
   -2.8990   -0.0066   -1.8150 C   0  0  0  0  0  0  0  0  0  0  0  0
   -1.7256   -0.2137   -1.0360 C   0  0  0  0  0  0  0  0  0  0  0  0
    5.3954   -1.2370    0.7836 C   0  0  0  0  0  0  0  0  0  0  0  0
    6.2515   -1.5576    1.8397 C   0  0  0  0  0  0  0  0  0  0  0  0
    7.6867   -0.1319    4.2716 H   0  0  0  0  0  0  0  0  0  0  0  0
    6.5210    1.5281    3.2601 H   0  0  0  0  0  0  0  0  0  0  0  0
    5.0083    2.0916    1.4087 H   0  0  0  0  0  0  0  0  0  0  0  0
    4.3584   -0.0786   -1.4425 H   0  0  0  0  0  0  0  0  0  0  0  0
    4.0374    1.4975   -0.7234 H   0  0  0  0  0  0  0  0  0  0  0  0
    0.5442   -0.2829    0.2206 H   0  0  0  0  0  0  0  0  0  0  0  0
    0.6171    0.3435   -3.4181 H   0  0  0  0  0  0  0  0  0  0  0  0
   -1.4005    0.7308   -4.7561 H   0  0  0  0  0  0  0  0  0  0  0  0
   -5.8926    0.6572   -4.0408 H   0  0  0  0  0  0  0  0  0  0  0  0
   -3.8739   -2.5501   -0.1555 H   0  0  0  0  0  0  0  0  0  0  0  0
   -4.4580   -3.1748    2.1601 H   0  0  0  0  0  0  0  0  0  0  0  0
   -5.5135   -1.5152    3.6746 H   0  0  0  0  0  0  0  0  0  0  0  0
   -5.9993    0.7814    2.8531 H   0  0  0  0  0  0  0  0  0  0  0  0
   -5.4145    1.4224    0.5392 H   0  0  0  0  0  0  0  0  0  0  0  0
   -1.8200   -0.4872    0.0145 H   0  0  0  0  0  0  0  0  0  0  0  0
    5.0741   -2.0209    0.1020 H   0  0  0  0  0  0  0  0  0  0  0  0
    6.5980   -2.5793    1.9749 H   0  0  0  0  0  0  0  0  0  0  0  0
  1  2  1  0
  2  3  1  0
  3  4  2  0
  4  5  1  0
  5  6  1  0
  6  7  1  0
  7  8  2  0
  8  9  1  0
  9 10  1  0
 10 11  1  0
 11 12  2  0
 12 13  1  0
 13 14  2  0
 14 15  1  0
 15 16  2  0
 16 17  1  0
 17 18  1  0
 18 19  2  0
 19 20  1  0
 20 21  2  0
 21 22  1  0
 22 23  2  0
 17 24  2  0
 24 25  1  0
  5 26  2  0
 26 27  1  0
 27  2  2  0
 25 10  2  0
 24 13  1  0
 23 18  1  0
  1 28  1  0
  3 29  1  0
  4 30  1  0
  6 31  1  0
  6 32  1  0
  9 33  1  0
 11 34  1  0
 12 35  1  0
 15 36  1  0
 19 37  1  0
 20 38  1  0
 21 39  1  0
 22 40  1  0
 23 41  1  0
 25 42  1  0
 26 43  1  0
 27 44  1  0
M  END
$$$$
