
     RDKit          3D

 53 55  0  0  0  0  0  0  0  0999 V2000
   -3.7561    1.8904    0.4418 C   0  0  0  0  0  0  0  0  0  0  0  0
   -4.3997    0.8187   -0.4238 N   0  0  0  0  0  0  0  0  0  0  0  0
   -4.9596    1.4504   -1.6940 C   0  0  0  0  0  0  0  0  0  0  0  0
   -5.5606    0.1970    0.3551 C   0  0  0  0  0  0  0  0  0  0  0  0
   -3.3923   -0.3252   -0.7476 C   0  0  0  0  0  0  0  0  0  0  0  0
   -2.1733    0.0959   -1.6062 C   0  0  0  0  0  0  0  0  0  0  0  0
   -2.5959    0.4593   -2.9234 O   0  0  0  0  0  0  0  0  0  0  0  0
   -1.1750   -1.0725   -1.6879 C   0  0  0  0  0  0  0  0  0  0  0  0
   -0.7526   -1.4652   -0.3846 O   0  0  0  0  0  0  0  0  0  0  0  0
    0.3977   -0.7403    0.1035 C   0  0  0  0  0  0  0  0  0  0  0  0
    0.2050   -0.5879    1.6203 C   0  0  0  0  0  0  0  0  0  0  0  0
    0.3741   -1.9039    2.3728 C   0  0  0  0  0  0  0  0  0  0  0  0
    1.7101   -2.5591    2.0495 C   0  0  0  0  0  0  0  0  0  0  0  0
    1.8656   -2.7855    0.5483 C   0  0  0  0  0  0  0  0  0  0  0  0
    1.6912   -1.5004   -0.2809 C   0  0  2  0  0  0  0  0  0  0  0  0
    2.9033   -0.6005   -0.1970 C   0  0  0  0  0  0  0  0  0  0  0  0
    2.9664    0.5019    0.5173 N   0  0  0  0  0  0  0  0  0  0  0  0
    4.2157    1.0879    0.3835 C   0  0  0  0  0  0  0  0  0  0  0  0
    4.6495    2.2656    1.0255 C   0  0  0  0  0  0  0  0  0  0  0  0
    5.9420    2.7478    0.7941 C   0  0  0  0  0  0  0  0  0  0  0  0
    6.8020    2.0732   -0.0669 C   0  0  0  0  0  0  0  0  0  0  0  0
    6.3949    0.9039   -0.7173 C   0  0  0  0  0  0  0  0  0  0  0  0
    5.0954    0.4282   -0.4761 C   0  0  0  0  0  0  0  0  0  0  0  0
    4.3116   -0.9626   -1.1174 S   0  0  0  0  0  0  0  0  0  0  0  0
   -3.3209    1.4101    1.3232 H   0  0  0  0  0  0  0  0  0  0  0  0
   -2.9849    2.4036   -0.1383 H   0  0  0  0  0  0  0  0  0  0  0  0
   -4.5297    2.6049    0.7396 H   0  0  0  0  0  0  0  0  0  0  0  0
   -5.2913    0.6524   -2.3645 H   0  0  0  0  0  0  0  0  0  0  0  0
   -4.1902    2.0738   -2.1551 H   0  0  0  0  0  0  0  0  0  0  0  0
   -5.8070    2.0846   -1.4143 H   0  0  0  0  0  0  0  0  0  0  0  0
   -6.0310   -0.5654   -0.2729 H   0  0  0  0  0  0  0  0  0  0  0  0
   -6.2789    0.9852    0.5995 H   0  0  0  0  0  0  0  0  0  0  0  0
   -5.1625   -0.2498    1.2709 H   0  0  0  0  0  0  0  0  0  0  0  0
   -3.0772   -0.7247    0.2226 H   0  0  0  0  0  0  0  0  0  0  0  0
   -3.9721   -1.0908   -1.2776 H   0  0  0  0  0  0  0  0  0  0  0  0
   -1.6812    0.9629   -1.1568 H   0  0  0  0  0  0  0  0  0  0  0  0
   -1.8014    0.6408   -3.4624 H   0  0  0  0  0  0  0  0  0  0  0  0
   -1.6632   -1.9366   -2.1538 H   0  0  0  0  0  0  0  0  0  0  0  0
   -0.3225   -0.8224   -2.3311 H   0  0  0  0  0  0  0  0  0  0  0  0
    0.3949    0.2654   -0.3368 H   0  0  0  0  0  0  0  0  0  0  0  0
   -0.8000   -0.1981    1.8248 H   0  0  0  0  0  0  0  0  0  0  0  0
    0.9156    0.1445    2.0195 H   0  0  0  0  0  0  0  0  0  0  0  0
    0.3052   -1.7209    3.4512 H   0  0  0  0  0  0  0  0  0  0  0  0
   -0.4439   -2.5876    2.1146 H   0  0  0  0  0  0  0  0  0  0  0  0
    1.7815   -3.5195    2.5728 H   0  0  0  0  0  0  0  0  0  0  0  0
    2.5302   -1.9336    2.4218 H   0  0  0  0  0  0  0  0  0  0  0  0
    2.8392   -3.2504    0.3529 H   0  0  0  0  0  0  0  0  0  0  0  0
    1.1090   -3.5141    0.2281 H   0  0  0  0  0  0  0  0  0  0  0  0
    1.5936   -1.8161   -1.3291 H   0  0  0  0  0  0  0  0  0  0  0  0
    3.9783    2.7917    1.6957 H   0  0  0  0  0  0  0  0  0  0  0  0
    6.2762    3.6557    1.2916 H   0  0  0  0  0  0  0  0  0  0  0  0
    7.8058    2.4589   -0.2372 H   0  0  0  0  0  0  0  0  0  0  0  0
    7.0689    0.3784   -1.3875 H   0  0  0  0  0  0  0  0  0  0  0  0
  1  2  1  0
  2  3  1  0
  2  4  1  0
  2  5  1  0
  5  6  1  0
  6  7  1  0
  6  8  1  0
  8  9  1  0
  9 10  1  0
 10 11  1  0
 11 12  1  0
 12 13  1  0
 13 14  1  0
 14 15  1  0
 15 16  1  0
 16 17  2  0
 17 18  1  0
 18 19  2  0
 19 20  1  0
 20 21  2  0
 21 22  1  0
 22 23  2  0
 23 24  1  0
 15 10  1  0
 24 16  1  0
 23 18  1  0
  1 25  1  0
  1 26  1  0
  1 27  1  0
  3 28  1  0
  3 29  1  0
  3 30  1  0
  4 31  1  0
  4 32  1  0
  4 33  1  0
  5 34  1  0
  5 35  1  0
  6 36  1  0
  7 37  1  0
  8 38  1  0
  8 39  1  0
 10 40  1  0
 11 41  1  0
 11 42  1  0
 12 43  1  0
 12 44  1  0
 13 45  1  0
 13 46  1  0
 14 47  1  0
 14 48  1  0
 15 49  1  6
 19 50  1  0
 20 51  1  0
 21 52  1  0
 22 53  1  0
M  CHG  1   2   1
M  END
$$$$
