
     RDKit          3D

 55 58  0  0  0  0  0  0  0  0999 V2000
    7.2268   -0.9628    0.9962 C   0  0  0  0  0  0  0  0  0  0  0  0
    6.3448   -0.3384   -0.0095 C   0  0  0  0  0  0  0  0  0  0  0  0
    6.2331   -0.5283   -1.3658 C   0  0  0  0  0  0  0  0  0  0  0  0
    5.2010    0.3265   -1.8535 C   0  0  0  0  0  0  0  0  0  0  0  0
    4.8024    0.3955   -3.2856 C   0  0  0  0  0  0  0  0  0  0  0  0
    4.6644    0.9914   -0.7530 C   0  0  0  0  0  0  0  0  0  0  0  0
    3.6304    1.8798   -0.5861 N   0  0  0  0  0  0  0  0  0  0  0  0
    2.9011    2.3755   -1.7411 C   0  0  0  0  0  0  0  0  0  0  0  0
    2.9037    1.9710    0.6999 C   0  0  0  0  0  0  0  0  0  0  0  0
    2.0749    0.7187    1.0162 C   0  0  0  0  0  0  0  0  0  0  0  0
    0.6748    0.8837    0.5974 N   0  0  0  0  0  0  0  0  0  0  0  0
    0.4690    0.5076   -0.5693 N   0  0  0  0  0  0  0  0  0  0  0  0
   -0.8809    0.5330   -0.7550 N   0  0  0  0  0  0  0  0  0  0  0  0
   -1.5925   -0.6168   -0.3003 C   0  0  0  0  0  0  0  0  0  0  0  0
   -1.0496   -1.8984   -0.3437 C   0  0  0  0  0  0  0  0  0  0  0  0
   -1.8102   -2.9961    0.0631 C   0  0  0  0  0  0  0  0  0  0  0  0
   -3.1168   -2.8622    0.5059 C   0  0  0  0  0  0  0  0  0  0  0  0
   -3.7722   -3.9562    0.9054 N   0  0  0  0  0  0  0  0  0  0  0  0
   -5.0202   -3.7876    1.3492 C   0  0  0  0  0  0  0  0  0  0  0  0
   -5.6799   -2.6306    1.4144 N   0  0  0  0  0  0  0  0  0  0  0  0
   -5.0102   -1.5396    0.9869 C   0  0  0  0  0  0  0  0  0  0  0  0
   -5.7919   -0.3004    1.0965 C   0  0  0  0  0  0  0  0  0  0  0  0
   -6.1023    0.2274    2.3617 C   0  0  0  0  0  0  0  0  0  0  0  0
   -6.8636    1.3909    2.4920 C   0  0  0  0  0  0  0  0  0  0  0  0
   -7.3308    2.0418    1.3528 C   0  0  0  0  0  0  0  0  0  0  0  0
   -7.0344    1.5283    0.0918 C   0  0  0  0  0  0  0  0  0  0  0  0
   -7.6210    2.3339   -1.3136 Cl  0  0  0  0  0  0  0  0  0  0  0  0
   -6.2720    0.3658   -0.0428 C   0  0  0  0  0  0  0  0  0  0  0  0
   -3.6903   -1.5856    0.5175 C   0  0  0  0  0  0  0  0  0  0  0  0
   -2.9235   -0.4704    0.0935 C   0  0  0  0  0  0  0  0  0  0  0  0
    5.4296    0.6186    0.3322 N   0  0  0  0  0  0  0  0  0  0  0  0
    6.6499   -1.6316    1.6470 H   0  0  0  0  0  0  0  0  0  0  0  0
    8.0126   -1.5490    0.5117 H   0  0  0  0  0  0  0  0  0  0  0  0
    7.7001   -0.2001    1.6258 H   0  0  0  0  0  0  0  0  0  0  0  0
    6.8265   -1.2134   -1.9555 H   0  0  0  0  0  0  0  0  0  0  0  0
    5.5310   -0.1222   -3.9198 H   0  0  0  0  0  0  0  0  0  0  0  0
    4.7607    1.4281   -3.6384 H   0  0  0  0  0  0  0  0  0  0  0  0
    3.8302   -0.0823   -3.4397 H   0  0  0  0  0  0  0  0  0  0  0  0
    3.5830    2.8589   -2.4445 H   0  0  0  0  0  0  0  0  0  0  0  0
    2.1668    3.1378   -1.4583 H   0  0  0  0  0  0  0  0  0  0  0  0
    2.3677    1.5692   -2.2518 H   0  0  0  0  0  0  0  0  0  0  0  0
    3.6325    2.1290    1.5089 H   0  0  0  0  0  0  0  0  0  0  0  0
    2.2666    2.8661    0.7200 H   0  0  0  0  0  0  0  0  0  0  0  0
    2.5091   -0.2038    0.6025 H   0  0  0  0  0  0  0  0  0  0  0  0
    2.0499    0.5941    2.1003 H   0  0  0  0  0  0  0  0  0  0  0  0
   -1.0739    0.5920   -1.7483 H   0  0  0  0  0  0  0  0  0  0  0  0
   -0.0291   -2.0593   -0.6791 H   0  0  0  0  0  0  0  0  0  0  0  0
   -1.3617   -3.9847    0.0343 H   0  0  0  0  0  0  0  0  0  0  0  0
   -5.5488   -4.6735    1.6865 H   0  0  0  0  0  0  0  0  0  0  0  0
   -5.7497   -0.2809    3.2554 H   0  0  0  0  0  0  0  0  0  0  0  0
   -7.0917    1.7805    3.4817 H   0  0  0  0  0  0  0  0  0  0  0  0
   -7.9301    2.9430    1.4565 H   0  0  0  0  0  0  0  0  0  0  0  0
   -6.0617   -0.0316   -1.0341 H   0  0  0  0  0  0  0  0  0  0  0  0
   -3.3532    0.5271    0.1129 H   0  0  0  0  0  0  0  0  0  0  0  0
    5.3197    0.9905    1.2603 H   0  0  0  0  0  0  0  0  0  0  0  0
  1  2  1  0
  2  3  2  0
  3  4  1  0
  4  5  1  0
  4  6  2  0
  6  7  1  0
  7  8  1  0
  7  9  1  0
  9 10  1  0
 10 11  1  0
 11 12  2  0
 12 13  1  0
 13 14  1  0
 14 15  1  0
 15 16  2  0
 16 17  1  0
 17 18  2  0
 18 19  1  0
 19 20  2  0
 20 21  1  0
 21 22  1  0
 22 23  2  0
 23 24  1  0
 24 25  2  0
 25 26  1  0
 26 27  1  0
 26 28  2  0
 21 29  2  0
 29 30  1  0
  6 31  1  0
 31  2  1  0
 30 14  2  0
 29 17  1  0
 28 22  1  0
  1 32  1  0
  1 33  1  0
  1 34  1  0
  3 35  1  0
  5 36  1  0
  5 37  1  0
  5 38  1  0
  8 39  1  0
  8 40  1  0
  8 41  1  0
  9 42  1  0
  9 43  1  0
 10 44  1  0
 10 45  1  0
 13 46  1  0
 15 47  1  0
 16 48  1  0
 19 49  1  0
 23 50  1  0
 24 51  1  0
 25 52  1  0
 28 53  1  0
 30 54  1  0
 31 55  1  0
M  END
$$$$
