
     RDKit          3D

 40 42  0  0  0  0  0  0  0  0999 V2000
   -5.7195   -1.5167   -0.2737 C   0  0  0  0  0  0  0  0  0  0  0  0
   -4.4570   -0.8990    0.1973 C   0  0  0  0  0  0  0  0  0  0  0  0
   -4.0958   -0.4050    1.4321 C   0  0  0  0  0  0  0  0  0  0  0  0
   -2.7581    0.0797    1.3434 C   0  0  0  0  0  0  0  0  0  0  0  0
   -1.9969    0.7162    2.4513 C   0  0  0  0  0  0  0  0  0  0  0  0
   -2.3387   -0.1438    0.0401 C   0  0  0  0  0  0  0  0  0  0  0  0
   -1.0847    0.1217   -0.5950 C   0  0  0  0  0  0  0  0  0  0  0  0
    0.1076   -0.1512    0.0286 N   0  0  0  0  0  0  0  0  0  0  0  0
    1.1750    0.1704   -0.7799 C   0  0  0  0  0  0  0  0  0  0  0  0
    2.5710   -0.0221   -0.3849 C   0  0  0  0  0  0  0  0  0  0  0  0
    3.5380   -0.3578   -1.3475 C   0  0  0  0  0  0  0  0  0  0  0  0
    4.8827   -0.5416   -0.9975 C   0  0  0  0  0  0  0  0  0  0  0  0
    5.2792   -0.3916    0.3279 C   0  0  0  0  0  0  0  0  0  0  0  0
    6.5903   -0.5419    0.6687 O   0  0  0  0  0  0  0  0  0  0  0  0
    4.3207   -0.0628    1.2845 C   0  0  0  0  0  0  0  0  0  0  0  0
    4.6991    0.0886    2.6730 N   0  0  0  0  0  0  0  0  0  0  0  0
    5.1051   -0.9191    3.2679 O   0  0  0  0  0  0  0  0  0  0  0  0
    4.5213    1.2044    3.1826 O   0  0  0  0  0  0  0  0  0  0  0  0
    2.9744    0.1306    0.9461 C   0  0  0  0  0  0  0  0  0  0  0  0
    0.6287    0.6579   -1.9546 C   0  0  0  0  0  0  0  0  0  0  0  0
   -0.7928    0.6405   -1.8452 C   0  0  0  0  0  0  0  0  0  0  0  0
   -1.7468    1.1155   -2.8823 C   0  0  0  0  0  0  0  0  0  0  0  0
   -3.3824   -0.7259   -0.6374 N   0  0  0  0  0  0  0  0  0  0  0  0
   -6.4570   -1.5670    0.5337 H   0  0  0  0  0  0  0  0  0  0  0  0
   -5.5392   -2.5352   -0.6321 H   0  0  0  0  0  0  0  0  0  0  0  0
   -6.1519   -0.9322   -1.0920 H   0  0  0  0  0  0  0  0  0  0  0  0
   -4.7290   -0.3871    2.3107 H   0  0  0  0  0  0  0  0  0  0  0  0
   -1.2631    0.0153    2.8613 H   0  0  0  0  0  0  0  0  0  0  0  0
   -2.6652    1.0206    3.2635 H   0  0  0  0  0  0  0  0  0  0  0  0
   -1.4701    1.6098    2.1015 H   0  0  0  0  0  0  0  0  0  0  0  0
    0.1766   -0.5730    0.9431 H   0  0  0  0  0  0  0  0  0  0  0  0
    3.2481   -0.4871   -2.3891 H   0  0  0  0  0  0  0  0  0  0  0  0
    5.5972   -0.7952   -1.7758 H   0  0  0  0  0  0  0  0  0  0  0  0
    7.1055   -0.8202   -0.1077 H   0  0  0  0  0  0  0  0  0  0  0  0
    2.2617    0.4154    1.7162 H   0  0  0  0  0  0  0  0  0  0  0  0
    1.1932    1.0138   -2.8076 H   0  0  0  0  0  0  0  0  0  0  0  0
   -2.2044    0.2650   -3.3971 H   0  0  0  0  0  0  0  0  0  0  0  0
   -2.5404    1.7229   -2.4355 H   0  0  0  0  0  0  0  0  0  0  0  0
   -1.2383    1.7313   -3.6314 H   0  0  0  0  0  0  0  0  0  0  0  0
   -3.3442   -1.0077   -1.6068 H   0  0  0  0  0  0  0  0  0  0  0  0
  1  2  1  0
  2  3  2  0
  3  4  1  0
  4  5  1  0
  4  6  2  0
  6  7  1  0
  7  8  1  0
  8  9  1  0
  9 10  1  0
 10 11  1  0
 11 12  2  0
 12 13  1  0
 13 14  1  0
 13 15  2  0
 15 16  1  0
 16 17  2  0
 16 18  1  0
 15 19  1  0
  9 20  2  0
 20 21  1  0
 21 22  1  0
  6 23  1  0
 23  2  1  0
 21  7  2  0
 19 10  2  0
  1 24  1  0
  1 25  1  0
  1 26  1  0
  3 27  1  0
  5 28  1  0
  5 29  1  0
  5 30  1  0
  8 31  1  0
 11 32  1  0
 12 33  1  0
 14 34  1  0
 19 35  1  0
 20 36  1  0
 22 37  1  0
 22 38  1  0
 22 39  1  0
 23 40  1  0
M  CHG  2  16   1  18  -1
M  END
$$$$
