
     RDKit          3D

 38 40  0  0  0  0  0  0  0  0999 V2000
   -3.3090    0.0574    2.6984 C   0  0  0  0  0  0  0  0  0  0  0  0
   -3.1332    0.0179    1.2093 C   0  0  0  0  0  0  0  0  0  0  0  0
   -4.0170    0.7087    0.3749 C   0  0  0  0  0  0  0  0  0  0  0  0
   -3.8432    0.6873   -1.0078 C   0  0  0  0  0  0  0  0  0  0  0  0
   -2.7706   -0.0078   -1.5682 C   0  0  0  0  0  0  0  0  0  0  0  0
   -1.8434   -0.6778   -0.7553 C   0  0  0  0  0  0  0  0  0  0  0  0
   -0.7272   -1.4200   -1.3492 C   0  0  0  0  0  0  0  0  0  0  0  0
   -1.1229   -2.4080   -2.1969 N   0  0  0  0  0  0  0  0  0  0  0  0
   -0.1968   -3.2839   -2.6262 C   0  0  0  0  0  0  0  0  0  0  0  0
    1.0894   -3.2969   -2.2679 N   0  0  0  0  0  0  0  0  0  0  0  0
    1.4212   -2.2858   -1.4675 C   0  0  0  0  0  0  0  0  0  0  0  0
    0.5968   -1.2657   -1.0148 C   0  0  0  0  0  0  0  0  0  0  0  0
    1.4466   -0.3854   -0.1916 C   0  0  0  0  0  0  0  0  0  0  0  0
    1.3056    0.8859    0.2450 C   0  0  0  0  0  0  0  0  0  0  0  0
    0.2001    1.7130   -0.1312 C   0  0  0  0  0  0  0  0  0  0  0  0
   -0.6285    2.4549   -0.4595 N   0  0  0  0  0  0  0  0  0  0  0  0
    2.3286    1.5971    1.0491 C   0  0  0  0  0  0  0  0  0  0  0  0
    2.1322    1.5151    2.4285 N   0  0  0  0  0  0  0  0  0  0  0  0
    3.3531    2.2627    0.4484 C   0  0  0  0  0  0  0  0  0  0  0  0
    3.5055    2.2846   -0.9682 C   0  0  0  0  0  0  0  0  0  0  0  0
    3.5905    2.2590   -2.1251 N   0  0  0  0  0  0  0  0  0  0  0  0
    4.3320    2.9483    1.2208 C   0  0  0  0  0  0  0  0  0  0  0  0
    5.1196    3.4957    1.8745 N   0  0  0  0  0  0  0  0  0  0  0  0
    2.7664   -1.1098   -0.0480 C   0  0  0  0  0  0  0  0  0  0  0  0
    3.7166   -0.7970    0.6411 O   0  0  0  0  0  0  0  0  0  0  0  0
    2.6790   -2.1854   -0.8961 N   0  0  0  0  0  0  0  0  0  0  0  0
   -2.0500   -0.6664    0.6379 C   0  0  0  0  0  0  0  0  0  0  0  0
   -2.7469    0.8970    3.1186 H   0  0  0  0  0  0  0  0  0  0  0  0
   -4.3651    0.1693    2.9655 H   0  0  0  0  0  0  0  0  0  0  0  0
   -2.9551   -0.8717    3.1574 H   0  0  0  0  0  0  0  0  0  0  0  0
   -4.8506    1.2666    0.7959 H   0  0  0  0  0  0  0  0  0  0  0  0
   -4.5392    1.2193   -1.6513 H   0  0  0  0  0  0  0  0  0  0  0  0
   -2.6541   -0.0166   -2.6503 H   0  0  0  0  0  0  0  0  0  0  0  0
   -0.5331   -4.0592   -3.3067 H   0  0  0  0  0  0  0  0  0  0  0  0
    2.9524    1.7351    2.9974 H   0  0  0  0  0  0  0  0  0  0  0  0
    1.7131    0.6399    2.7415 H   0  0  0  0  0  0  0  0  0  0  0  0
    3.4082   -2.8656   -1.0455 H   0  0  0  0  0  0  0  0  0  0  0  0
   -1.3712   -1.2117    1.2906 H   0  0  0  0  0  0  0  0  0  0  0  0
  1  2  1  0
  2  3  2  0
  3  4  1  0
  4  5  2  0
  5  6  1  0
  6  7  1  0
  7  8  1  0
  8  9  2  0
  9 10  1  0
 10 11  2  0
 11 12  1  0
 12 13  1  0
 13 14  2  3
 14 15  1  0
 15 16  3  0
 14 17  1  0
 17 18  1  0
 17 19  2  3
 19 20  1  0
 20 21  3  0
 19 22  1  0
 22 23  3  0
 13 24  1  0
 24 25  2  0
 24 26  1  0
  6 27  2  0
 27  2  1  0
 12  7  2  0
 26 11  1  0
  1 28  1  0
  1 29  1  0
  1 30  1  0
  3 31  1  0
  4 32  1  0
  5 33  1  0
  9 34  1  0
 18 35  1  0
 18 36  1  0
 26 37  1  0
 27 38  1  0
M  END
$$$$
