
     RDKit          3D

 40 42  0  0  0  0  0  0  0  0999 V2000
   -2.6184   -1.9967   -0.0507 C   0  0  0  0  0  0  0  0  0  0  0  0
   -1.5934   -0.9490   -0.0340 N   0  0  0  0  0  0  0  0  0  0  0  0
   -1.8169    0.3344   -0.5717 C   0  0  0  0  0  0  0  0  0  0  0  0
   -0.9619    1.2116   -0.7129 O   0  0  0  0  0  0  0  0  0  0  0  0
   -3.1869    0.6983   -0.9910 C   0  0  0  0  0  0  0  0  0  0  0  0
   -3.4168    1.0408   -2.3279 C   0  0  0  0  0  0  0  0  0  0  0  0
   -4.6983    1.4123   -2.7348 C   0  0  0  0  0  0  0  0  0  0  0  0
   -5.7388    1.4543   -1.8042 C   0  0  0  0  0  0  0  0  0  0  0  0
   -5.4932    1.1344   -0.4676 C   0  0  0  0  0  0  0  0  0  0  0  0
   -6.7775    1.2015    0.6752 Cl  0  0  0  0  0  0  0  0  0  0  0  0
   -4.2183    0.7624   -0.0493 C   0  0  0  0  0  0  0  0  0  0  0  0
   -0.3379   -1.2129    0.5390 C   0  0  0  0  0  0  0  0  0  0  0  0
    0.1269   -2.3318    1.2008 C   0  0  0  0  0  0  0  0  0  0  0  0
    1.4688   -2.0846    1.5877 C   0  0  0  0  0  0  0  0  0  0  0  0
    1.8144   -0.8187    1.1504 C   0  0  0  0  0  0  0  0  0  0  0  0
    3.0633   -0.0642    1.2717 C   0  0  0  0  0  0  0  0  0  0  0  0
    3.0159    1.2526    1.7613 C   0  0  0  0  0  0  0  0  0  0  0  0
    4.1904    1.9930    1.9120 C   0  0  0  0  0  0  0  0  0  0  0  0
    4.1661    3.2704    2.3882 O   0  0  0  0  0  0  0  0  0  0  0  0
    5.4311    1.4544    1.5862 C   0  0  0  0  0  0  0  0  0  0  0  0
    5.5073    0.1538    1.0957 C   0  0  0  0  0  0  0  0  0  0  0  0
    4.3251   -0.5853    0.9427 C   0  0  0  0  0  0  0  0  0  0  0  0
    4.4517   -1.9154    0.3884 N   0  0  0  0  0  0  0  0  0  0  0  0
    4.8619   -2.8022    1.1503 O   0  0  0  0  0  0  0  0  0  0  0  0
    4.1885   -2.0549   -0.8134 O   0  0  0  0  0  0  0  0  0  0  0  0
    0.7017   -0.3116    0.5187 N   0  0  0  0  0  0  0  0  0  0  0  0
   -2.1565   -2.9705   -0.2399 H   0  0  0  0  0  0  0  0  0  0  0  0
   -3.3530   -1.8308   -0.8422 H   0  0  0  0  0  0  0  0  0  0  0  0
   -3.1216   -2.0095    0.9205 H   0  0  0  0  0  0  0  0  0  0  0  0
   -2.5998    1.0221   -3.0464 H   0  0  0  0  0  0  0  0  0  0  0  0
   -4.8850    1.6762   -3.7733 H   0  0  0  0  0  0  0  0  0  0  0  0
   -6.7358    1.7471   -2.1249 H   0  0  0  0  0  0  0  0  0  0  0  0
   -4.0253    0.5353    0.9955 H   0  0  0  0  0  0  0  0  0  0  0  0
   -0.4301   -3.2373    1.4002 H   0  0  0  0  0  0  0  0  0  0  0  0
    2.1084   -2.7677    2.1342 H   0  0  0  0  0  0  0  0  0  0  0  0
    2.0603    1.6901    2.0403 H   0  0  0  0  0  0  0  0  0  0  0  0
    3.2459    3.5275    2.5666 H   0  0  0  0  0  0  0  0  0  0  0  0
    6.3322    2.0492    1.7129 H   0  0  0  0  0  0  0  0  0  0  0  0
    6.4726   -0.2717    0.8324 H   0  0  0  0  0  0  0  0  0  0  0  0
    0.6328    0.5931    0.0643 H   0  0  0  0  0  0  0  0  0  0  0  0
  1  2  1  0
  2  3  1  0
  3  4  2  0
  3  5  1  0
  5  6  2  0
  6  7  1  0
  7  8  2  0
  8  9  1  0
  9 10  1  0
  9 11  2  0
  2 12  1  0
 12 13  2  0
 13 14  1  0
 14 15  2  0
 15 16  1  0
 16 17  1  0
 17 18  2  0
 18 19  1  0
 18 20  1  0
 20 21  2  0
 21 22  1  0
 22 23  1  0
 23 24  2  0
 23 25  1  0
 15 26  1  0
 11  5  1  0
 26 12  1  0
 22 16  2  0
  1 27  1  0
  1 28  1  0
  1 29  1  0
  6 30  1  0
  7 31  1  0
  8 32  1  0
 11 33  1  0
 13 34  1  0
 14 35  1  0
 17 36  1  0
 19 37  1  0
 20 38  1  0
 21 39  1  0
 26 40  1  0
M  CHG  2  23   1  25  -1
M  END
$$$$
