
     RDKit          3D

 41 44  0  0  0  0  0  0  0  0999 V2000
    5.0356    0.1448    1.6266 C   0  0  0  0  0  0  0  0  0  0  0  0
    4.1240   -0.2707    0.5107 C   0  0  0  0  0  0  0  0  0  0  0  0
    4.6488   -0.7547   -0.6931 C   0  0  0  0  0  0  0  0  0  0  0  0
    3.7996   -1.1019   -1.7442 C   0  0  0  0  0  0  0  0  0  0  0  0
    2.4188   -0.9569   -1.6053 C   0  0  0  0  0  0  0  0  0  0  0  0
    1.8798   -0.4529   -0.4175 C   0  0  0  0  0  0  0  0  0  0  0  0
    0.4246   -0.3396   -0.2777 C   0  0  0  0  0  0  0  0  0  0  0  0
   -0.2875    0.7927   -0.1618 C   0  0  0  0  0  0  0  0  0  0  0  0
    0.2706    2.1944   -0.2367 C   0  0  0  0  0  0  0  0  0  0  0  0
    1.4358    2.5361   -0.2968 O   0  0  0  0  0  0  0  0  0  0  0  0
   -0.8457    3.0132   -0.2405 N   0  0  0  0  0  0  0  0  0  0  0  0
   -0.8295    4.4474   -0.3201 C   0  0  0  0  0  0  0  0  0  0  0  0
   -2.0293    2.2755   -0.1437 C   0  0  0  0  0  0  0  0  0  0  0  0
   -3.2456    2.8326   -0.1386 N   0  0  0  0  0  0  0  0  0  0  0  0
   -4.2408    1.9492   -0.0357 C   0  0  0  0  0  0  0  0  0  0  0  0
   -4.1081    0.6156    0.0745 N   0  0  0  0  0  0  0  0  0  0  0  0
   -2.8433    0.1009    0.0996 C   0  0  0  0  0  0  0  0  0  0  0  0
   -2.7844   -1.3499    0.3369 C   0  0  0  0  0  0  0  0  0  0  0  0
   -3.6195   -2.2379   -0.3426 C   0  0  0  0  0  0  0  0  0  0  0  0
   -3.5468   -3.5989   -0.0544 C   0  0  0  0  0  0  0  0  0  0  0  0
   -2.6537   -4.0420    0.9119 C   0  0  0  0  0  0  0  0  0  0  0  0
   -1.8686   -3.1013    1.5540 C   0  0  0  0  0  0  0  0  0  0  0  0
   -1.9142   -1.7761    1.2900 N   0  0  0  0  0  0  0  0  0  0  0  0
   -1.7484    0.9207   -0.0536 C   0  0  0  0  0  0  0  0  0  0  0  0
    2.7363   -0.1163    0.6376 C   0  0  0  0  0  0  0  0  0  0  0  0
    5.9598   -0.4425    1.6161 H   0  0  0  0  0  0  0  0  0  0  0  0
    4.5599   -0.0167    2.5997 H   0  0  0  0  0  0  0  0  0  0  0  0
    5.2893    1.2047    1.5275 H   0  0  0  0  0  0  0  0  0  0  0  0
    5.7237   -0.8594   -0.8202 H   0  0  0  0  0  0  0  0  0  0  0  0
    4.2149   -1.4791   -2.6747 H   0  0  0  0  0  0  0  0  0  0  0  0
    1.7700   -1.2298   -2.4334 H   0  0  0  0  0  0  0  0  0  0  0  0
   -0.0682   -1.3061   -0.2952 H   0  0  0  0  0  0  0  0  0  0  0  0
    0.1983    4.8145   -0.3898 H   0  0  0  0  0  0  0  0  0  0  0  0
   -1.3818    4.7680   -1.2085 H   0  0  0  0  0  0  0  0  0  0  0  0
   -1.2955    4.8657    0.5770 H   0  0  0  0  0  0  0  0  0  0  0  0
   -5.2523    2.3417   -0.0372 H   0  0  0  0  0  0  0  0  0  0  0  0
   -4.3252   -1.8734   -1.0834 H   0  0  0  0  0  0  0  0  0  0  0  0
   -4.1894   -4.3037   -0.5745 H   0  0  0  0  0  0  0  0  0  0  0  0
   -2.5759   -5.0937    1.1638 H   0  0  0  0  0  0  0  0  0  0  0  0
   -1.1583   -3.3954    2.3221 H   0  0  0  0  0  0  0  0  0  0  0  0
    2.3221    0.2810    1.5620 H   0  0  0  0  0  0  0  0  0  0  0  0
  1  2  1  0
  2  3  2  0
  3  4  1  0
  4  5  2  0
  5  6  1  0
  6  7  1  0
  7  8  2  3
  8  9  1  0
  9 10  2  0
  9 11  1  0
 11 12  1  0
 11 13  1  0
 13 14  2  0
 14 15  1  0
 15 16  2  0
 16 17  1  0
 17 18  1  0
 18 19  2  0
 19 20  1  0
 20 21  2  0
 21 22  1  0
 22 23  2  0
 17 24  2  0
  6 25  2  0
 25  2  1  0
 24  8  1  0
 24 13  1  0
 23 18  1  0
  1 26  1  0
  1 27  1  0
  1 28  1  0
  3 29  1  0
  4 30  1  0
  5 31  1  0
  7 32  1  0
 12 33  1  0
 12 34  1  0
 12 35  1  0
 15 36  1  0
 19 37  1  0
 20 38  1  0
 21 39  1  0
 22 40  1  0
 25 41  1  0
M  END
$$$$
