
     RDKit          3D

 52 55  0  0  0  0  0  0  0  0999 V2000
   -8.1436   -3.2403   -1.7304 O   0  0  0  0  0  0  0  0  0  0  0  0
   -6.9789   -3.2412   -1.3092 N   0  0  0  0  0  0  0  0  0  0  0  0
   -6.4003   -4.2050   -0.7868 O   0  0  0  0  0  0  0  0  0  0  0  0
   -6.2426   -1.9966   -1.3704 C   0  0  0  0  0  0  0  0  0  0  0  0
   -5.8484   -1.4049   -0.1641 C   0  0  0  0  0  0  0  0  0  0  0  0
   -5.1348   -0.1978   -0.1826 C   0  0  0  0  0  0  0  0  0  0  0  0
   -4.7292    0.4473    1.0758 C   0  0  0  0  0  0  0  0  0  0  0  0
   -5.7746    0.9019    1.8010 N   0  0  0  0  0  0  0  0  0  0  0  0
   -5.4704    1.5260    2.9416 C   0  0  0  0  0  0  0  0  0  0  0  0
   -4.2389    1.7326    3.4214 N   0  0  0  0  0  0  0  0  0  0  0  0
   -3.2176    1.2602    2.6986 C   0  0  0  0  0  0  0  0  0  0  0  0
   -1.9280    1.4353    3.1769 C   0  0  0  0  0  0  0  0  0  0  0  0
   -0.8089    0.9590    2.4832 C   0  0  0  0  0  0  0  0  0  0  0  0
   -0.9521    0.2990    1.2632 C   0  0  0  0  0  0  0  0  0  0  0  0
    0.1340   -0.2588    0.5699 N   0  0  0  0  0  0  0  0  0  0  0  0
    1.3824    0.1305    0.8834 N   0  0  0  0  0  0  0  0  0  0  0  0
    2.0890   -0.1868   -0.0907 N   0  0  0  0  0  0  0  0  0  0  0  0
    3.5023    0.1677    0.1287 C   0  0  0  0  0  0  0  0  0  0  0  0
    4.3040   -0.2545   -1.1132 C   0  0  0  0  0  0  0  0  0  0  0  0
    5.7519    0.0021   -1.1209 N   0  0  0  0  0  0  0  0  0  0  0  0
    6.0932    1.4341   -1.0453 C   0  0  0  0  0  0  0  0  0  0  0  0
    7.6155    1.6387   -1.1251 C   0  0  0  0  0  0  0  0  0  0  0  0
    8.2886    0.9236   -0.0793 O   0  0  0  0  0  0  0  0  0  0  0  0
    7.9937   -0.4775   -0.1736 C   0  0  0  0  0  0  0  0  0  0  0  0
    6.4805   -0.7334   -0.0710 C   0  0  0  0  0  0  0  0  0  0  0  0
   -2.2523    0.0937    0.7879 C   0  0  0  0  0  0  0  0  0  0  0  0
   -3.3911    0.5858    1.4845 C   0  0  0  0  0  0  0  0  0  0  0  0
   -4.8506    0.3928   -1.4293 C   0  0  0  0  0  0  0  0  0  0  0  0
   -5.2437   -0.2128   -2.6302 C   0  0  0  0  0  0  0  0  0  0  0  0
   -5.9397   -1.4186   -2.6022 C   0  0  0  0  0  0  0  0  0  0  0  0
   -6.2942   -2.0262   -3.7698 O   0  0  0  0  0  0  0  0  0  0  0  0
   -6.1007   -1.8728    0.7867 H   0  0  0  0  0  0  0  0  0  0  0  0
   -6.2978    1.9017    3.5340 H   0  0  0  0  0  0  0  0  0  0  0  0
   -1.7829    1.9487    4.1253 H   0  0  0  0  0  0  0  0  0  0  0  0
    0.1764    1.1079    2.9190 H   0  0  0  0  0  0  0  0  0  0  0  0
   -0.0152   -0.4622   -0.4121 H   0  0  0  0  0  0  0  0  0  0  0  0
    3.8730   -0.3496    1.0207 H   0  0  0  0  0  0  0  0  0  0  0  0
    3.5850    1.2479    0.2916 H   0  0  0  0  0  0  0  0  0  0  0  0
    4.1457   -1.3277   -1.2852 H   0  0  0  0  0  0  0  0  0  0  0  0
    3.8664    0.2327   -1.9950 H   0  0  0  0  0  0  0  0  0  0  0  0
    5.7361    1.8624   -0.1010 H   0  0  0  0  0  0  0  0  0  0  0  0
    5.6192    1.9791   -1.8692 H   0  0  0  0  0  0  0  0  0  0  0  0
    8.0107    1.3170   -2.0962 H   0  0  0  0  0  0  0  0  0  0  0  0
    7.8530    2.7005   -1.0045 H   0  0  0  0  0  0  0  0  0  0  0  0
    8.4019   -0.8708   -1.1126 H   0  0  0  0  0  0  0  0  0  0  0  0
    8.5109   -0.9798    0.6502 H   0  0  0  0  0  0  0  0  0  0  0  0
    6.2965   -1.8093   -0.1667 H   0  0  0  0  0  0  0  0  0  0  0  0
    6.1426   -0.4151    0.9223 H   0  0  0  0  0  0  0  0  0  0  0  0
   -2.3883   -0.4667   -0.1344 H   0  0  0  0  0  0  0  0  0  0  0  0
   -4.3228    1.3457   -1.4686 H   0  0  0  0  0  0  0  0  0  0  0  0
   -4.9963    0.2731   -3.5703 H   0  0  0  0  0  0  0  0  0  0  0  0
   -6.1086   -1.4383   -4.5217 H   0  0  0  0  0  0  0  0  0  0  0  0
  1  2  2  0
  2  3  1  0
  2  4  1  0
  4  5  1  0
  5  6  2  0
  6  7  1  0
  7  8  1  0
  8  9  2  0
  9 10  1  0
 10 11  2  0
 11 12  1  0
 12 13  2  0
 13 14  1  0
 14 15  1  0
 15 16  1  0
 16 17  2  0
 17 18  1  0
 18 19  1  0
 19 20  1  0
 20 21  1  0
 21 22  1  0
 22 23  1  0
 23 24  1  0
 24 25  1  0
 14 26  2  0
 26 27  1  0
  6 28  1  0
 28 29  2  0
 29 30  1  0
 30 31  1  0
 30  4  2  0
 27  7  2  0
 27 11  1  0
 25 20  1  0
  5 32  1  0
  9 33  1  0
 12 34  1  0
 13 35  1  0
 15 36  1  0
 18 37  1  0
 18 38  1  0
 19 39  1  0
 19 40  1  0
 21 41  1  0
 21 42  1  0
 22 43  1  0
 22 44  1  0
 24 45  1  0
 24 46  1  0
 25 47  1  0
 25 48  1  0
 26 49  1  0
 28 50  1  0
 29 51  1  0
 31 52  1  0
M  CHG  2   2   1   3  -1
M  END
$$$$
