
     RDKit          3D

 32 32  0  0  0  0  0  0  0  0999 V2000
   -0.9881    1.6680    2.3058 N   0  0  0  0  0  0  0  0  0  0  0  0
   -0.6659    0.9300    1.4702 C   0  0  0  0  0  0  0  0  0  0  0  0
   -0.2657    0.0147    0.4425 C   0  0  0  0  0  0  0  0  0  0  0  0
   -1.1395   -0.5223   -0.4331 C   0  0  0  0  0  0  0  0  0  0  0  0
   -2.5751   -0.2283   -0.4857 C   0  0  0  0  0  0  0  0  0  0  0  0
   -3.0357    1.0318   -0.8848 C   0  0  0  0  0  0  0  0  0  0  0  0
   -4.4060    1.2930   -0.9396 C   0  0  0  0  0  0  0  0  0  0  0  0
   -5.3210    0.2968   -0.6030 C   0  0  0  0  0  0  0  0  0  0  0  0
   -4.8682   -0.9628   -0.2134 C   0  0  0  0  0  0  0  0  0  0  0  0
   -3.4982   -1.2270   -0.1571 C   0  0  0  0  0  0  0  0  0  0  0  0
    1.1602   -0.3456    0.3786 C   0  0  0  0  0  0  0  0  0  0  0  0
    1.5633   -1.3412    1.2631 N   0  0  0  0  0  0  0  0  0  0  0  0
    1.9924    0.2578   -0.5129 C   0  0  0  0  0  0  0  0  0  0  0  0
    1.5277    1.2643   -1.4236 C   0  0  0  0  0  0  0  0  0  0  0  0
    1.1380    2.0684   -2.1634 N   0  0  0  0  0  0  0  0  0  0  0  0
    3.4309   -0.0681   -0.5912 C   0  0  0  0  0  0  0  0  0  0  0  0
    3.7649   -0.9985   -1.5686 N   0  0  0  0  0  0  0  0  0  0  0  0
    4.3187    0.5199    0.2551 C   0  0  0  0  0  0  0  0  0  0  0  0
    5.7015    0.1885    0.1953 C   0  0  0  0  0  0  0  0  0  0  0  0
    6.8156   -0.1298    0.1294 N   0  0  0  0  0  0  0  0  0  0  0  0
    3.9241    1.4830    1.2288 C   0  0  0  0  0  0  0  0  0  0  0  0
    3.5968    2.2728    2.0124 N   0  0  0  0  0  0  0  0  0  0  0  0
   -0.8067   -1.2372   -1.1827 H   0  0  0  0  0  0  0  0  0  0  0  0
   -2.3376    1.8212   -1.1574 H   0  0  0  0  0  0  0  0  0  0  0  0
   -4.7584    2.2757   -1.2433 H   0  0  0  0  0  0  0  0  0  0  0  0
   -6.3875    0.5037   -0.6432 H   0  0  0  0  0  0  0  0  0  0  0  0
   -5.5833   -1.7380    0.0494 H   0  0  0  0  0  0  0  0  0  0  0  0
   -3.1632   -2.2141    0.1513 H   0  0  0  0  0  0  0  0  0  0  0  0
    0.8044   -1.9123    1.6359 H   0  0  0  0  0  0  0  0  0  0  0  0
    2.3551   -1.9037    0.9609 H   0  0  0  0  0  0  0  0  0  0  0  0
    3.0246   -1.6179   -1.8930 H   0  0  0  0  0  0  0  0  0  0  0  0
    4.6820   -1.4426   -1.5178 H   0  0  0  0  0  0  0  0  0  0  0  0
  1  2  3  0
  2  3  1  0
  3  4  2  3
  4  5  1  0
  5  6  2  0
  6  7  1  0
  7  8  2  0
  8  9  1  0
  9 10  2  0
  3 11  1  0
 11 12  1  0
 11 13  2  3
 13 14  1  0
 14 15  3  0
 13 16  1  0
 16 17  1  0
 16 18  2  3
 18 19  1  0
 19 20  3  0
 18 21  1  0
 21 22  3  0
 10  5  1  0
  4 23  1  0
  6 24  1  0
  7 25  1  0
  8 26  1  0
  9 27  1  0
 10 28  1  0
 12 29  1  0
 12 30  1  0
 17 31  1  0
 17 32  1  0
M  END
$$$$
