
     RDKit          3D

 32 32  0  0  0  0  0  0  0  0999 V2000
   -3.1353   -1.5961   -2.8721 N   0  0  0  0  0  0  0  0  0  0  0  0
   -3.6188   -1.5610   -1.8186 C   0  0  0  0  0  0  0  0  0  0  0  0
   -4.1636   -1.5299   -0.5040 C   0  0  0  0  0  0  0  0  0  0  0  0
   -5.5770   -1.6493   -0.3782 C   0  0  0  0  0  0  0  0  0  0  0  0
   -6.7268   -1.7601   -0.2796 N   0  0  0  0  0  0  0  0  0  0  0  0
   -3.3584   -1.4156    0.5762 C   0  0  0  0  0  0  0  0  0  0  0  0
   -3.8953   -1.4078    1.9046 C   0  0  0  0  0  0  0  0  0  0  0  0
   -4.3335   -1.3955    2.9777 N   0  0  0  0  0  0  0  0  0  0  0  0
   -1.8883   -1.2948    0.4859 C   0  0  0  0  0  0  0  0  0  0  0  0
   -1.2029   -2.5056    0.5665 N   0  0  0  0  0  0  0  0  0  0  0  0
   -1.2790   -0.0804    0.3401 C   0  0  0  0  0  0  0  0  0  0  0  0
   -2.0802    1.1098    0.2723 C   0  0  0  0  0  0  0  0  0  0  0  0
   -2.7804    2.0317    0.1976 N   0  0  0  0  0  0  0  0  0  0  0  0
    0.1958    0.0840    0.2512 C   0  0  0  0  0  0  0  0  0  0  0  0
    0.9846   -0.8116    0.9727 N   0  0  0  0  0  0  0  0  0  0  0  0
    0.7301    1.0719   -0.5019 C   0  0  0  0  0  0  0  0  0  0  0  0
    2.1667    1.3293   -0.6743 C   0  0  0  0  0  0  0  0  0  0  0  0
    2.7038    2.5467   -0.2417 C   0  0  0  0  0  0  0  0  0  0  0  0
    4.0648    2.8127   -0.4050 C   0  0  0  0  0  0  0  0  0  0  0  0
    4.8940    1.8673   -1.0070 C   0  0  0  0  0  0  0  0  0  0  0  0
    4.3638    0.6565   -1.4498 C   0  0  0  0  0  0  0  0  0  0  0  0
    3.0033    0.3888   -1.2873 C   0  0  0  0  0  0  0  0  0  0  0  0
   -1.5868   -3.2593   -0.0004 H   0  0  0  0  0  0  0  0  0  0  0  0
   -0.2009   -2.3850    0.3599 H   0  0  0  0  0  0  0  0  0  0  0  0
    1.9356   -0.4638    1.1093 H   0  0  0  0  0  0  0  0  0  0  0  0
    0.5688   -1.0517    1.8749 H   0  0  0  0  0  0  0  0  0  0  0  0
    0.1074    1.7707   -1.0583 H   0  0  0  0  0  0  0  0  0  0  0  0
    2.0695    3.2956    0.2275 H   0  0  0  0  0  0  0  0  0  0  0  0
    4.4775    3.7594   -0.0654 H   0  0  0  0  0  0  0  0  0  0  0  0
    5.9529    2.0769   -1.1365 H   0  0  0  0  0  0  0  0  0  0  0  0
    5.0085   -0.0775   -1.9267 H   0  0  0  0  0  0  0  0  0  0  0  0
    2.6000   -0.5563   -1.6446 H   0  0  0  0  0  0  0  0  0  0  0  0
  1  2  3  0
  2  3  1  0
  3  4  1  0
  4  5  3  0
  3  6  2  3
  6  7  1  0
  7  8  3  0
  6  9  1  0
  9 10  1  0
  9 11  2  3
 11 12  1  0
 12 13  3  0
 11 14  1  0
 14 15  1  0
 14 16  2  3
 16 17  1  0
 17 18  2  0
 18 19  1  0
 19 20  2  0
 20 21  1  0
 21 22  2  0
 22 17  1  0
 10 23  1  0
 10 24  1  0
 15 25  1  0
 15 26  1  0
 16 27  1  0
 18 28  1  0
 19 29  1  0
 20 30  1  0
 21 31  1  0
 22 32  1  0
M  END
$$$$
