
     RDKit          3D

 45 48  0  0  0  0  0  0  0  0999 V2000
    3.6744   -2.7978   -0.1953 C   0  0  0  0  0  0  0  0  0  0  0  0
    2.7058   -1.9487    0.5726 C   0  0  0  0  0  0  0  0  0  0  0  0
    1.9045   -2.5140    1.5709 C   0  0  0  0  0  0  0  0  0  0  0  0
    0.9824   -1.7299    2.2637 C   0  0  0  0  0  0  0  0  0  0  0  0
    0.8386   -0.3778    1.9511 C   0  0  0  0  0  0  0  0  0  0  0  0
    1.6061    0.1951    0.9313 C   0  0  0  0  0  0  0  0  0  0  0  0
    1.5173    1.6256    0.6350 C   0  0  0  0  0  0  0  0  0  0  0  0
    0.4343    2.3396    0.2878 C   0  0  0  0  0  0  0  0  0  0  0  0
    0.5512    3.8417    0.3558 C   0  0  0  0  0  0  0  0  0  0  0  0
    1.5766    4.4877    0.4658 O   0  0  0  0  0  0  0  0  0  0  0  0
   -0.7531    4.2933    0.2999 N   0  0  0  0  0  0  0  0  0  0  0  0
   -1.1666    5.6683    0.3427 C   0  0  0  0  0  0  0  0  0  0  0  0
   -1.6524    3.2385    0.0992 C   0  0  0  0  0  0  0  0  0  0  0  0
   -2.9702    3.4161   -0.0429 N   0  0  0  0  0  0  0  0  0  0  0  0
   -3.6334    2.2909   -0.3178 C   0  0  0  0  0  0  0  0  0  0  0  0
   -3.0866    1.0770   -0.5038 N   0  0  0  0  0  0  0  0  0  0  0  0
   -1.7351    0.9595   -0.3831 C   0  0  0  0  0  0  0  0  0  0  0  0
   -1.2236   -0.3420   -0.8315 C   0  0  0  0  0  0  0  0  0  0  0  0
   -0.2833   -0.4369   -1.8709 C   0  0  0  0  0  0  0  0  0  0  0  0
    0.1628   -1.6801   -2.3249 C   0  0  0  0  0  0  0  0  0  0  0  0
   -0.3309   -2.8514   -1.7539 C   0  0  0  0  0  0  0  0  0  0  0  0
   -1.2904   -2.7913   -0.7394 C   0  0  0  0  0  0  0  0  0  0  0  0
   -1.8029   -4.0472   -0.1006 C   0  0  0  0  0  0  0  0  0  0  0  0
   -1.7262   -1.5372   -0.2859 C   0  0  0  0  0  0  0  0  0  0  0  0
   -0.9698    2.0314    0.0092 C   0  0  0  0  0  0  0  0  0  0  0  0
    2.5485   -0.5916    0.2576 C   0  0  0  0  0  0  0  0  0  0  0  0
    4.5369   -2.2078   -0.5226 H   0  0  0  0  0  0  0  0  0  0  0  0
    4.0569   -3.6141    0.4264 H   0  0  0  0  0  0  0  0  0  0  0  0
    3.1824   -3.2239   -1.0750 H   0  0  0  0  0  0  0  0  0  0  0  0
    1.9954   -3.5696    1.8160 H   0  0  0  0  0  0  0  0  0  0  0  0
    0.3727   -2.1737    3.0460 H   0  0  0  0  0  0  0  0  0  0  0  0
    0.1268    0.2209    2.5134 H   0  0  0  0  0  0  0  0  0  0  0  0
    2.4580    2.1503    0.8123 H   0  0  0  0  0  0  0  0  0  0  0  0
   -1.9030    5.8034    1.1404 H   0  0  0  0  0  0  0  0  0  0  0  0
   -0.3078    6.3171    0.5367 H   0  0  0  0  0  0  0  0  0  0  0  0
   -1.6074    5.9433   -0.6201 H   0  0  0  0  0  0  0  0  0  0  0  0
   -4.7112    2.3621   -0.4188 H   0  0  0  0  0  0  0  0  0  0  0  0
    0.1081    0.4615   -2.3427 H   0  0  0  0  0  0  0  0  0  0  0  0
    0.8998   -1.7338   -3.1215 H   0  0  0  0  0  0  0  0  0  0  0  0
    0.0358   -3.8119   -2.1077 H   0  0  0  0  0  0  0  0  0  0  0  0
   -2.8373   -3.9202    0.2357 H   0  0  0  0  0  0  0  0  0  0  0  0
   -1.1801   -4.3097    0.7601 H   0  0  0  0  0  0  0  0  0  0  0  0
   -1.7930   -4.8801   -0.8115 H   0  0  0  0  0  0  0  0  0  0  0  0
   -2.4714   -1.4846    0.5065 H   0  0  0  0  0  0  0  0  0  0  0  0
    3.1605   -0.1484   -0.5253 H   0  0  0  0  0  0  0  0  0  0  0  0
  1  2  1  0
  2  3  2  0
  3  4  1  0
  4  5  2  0
  5  6  1  0
  6  7  1  0
  7  8  2  3
  8  9  1  0
  9 10  2  0
  9 11  1  0
 11 12  1  0
 11 13  1  0
 13 14  2  0
 14 15  1  0
 15 16  2  0
 16 17  1  0
 17 18  1  0
 18 19  1  0
 19 20  2  0
 20 21  1  0
 21 22  2  0
 22 23  1  0
 22 24  1  0
 17 25  2  0
  6 26  2  0
 26  2  1  0
 25  8  1  0
 25 13  1  0
 24 18  2  0
  1 27  1  0
  1 28  1  0
  1 29  1  0
  3 30  1  0
  4 31  1  0
  5 32  1  0
  7 33  1  0
 12 34  1  0
 12 35  1  0
 12 36  1  0
 15 37  1  0
 19 38  1  0
 20 39  1  0
 21 40  1  0
 23 41  1  0
 23 42  1  0
 23 43  1  0
 24 44  1  0
 26 45  1  0
M  END
$$$$
