
     RDKit          3D

 38 40  0  0  0  0  0  0  0  0999 V2000
    2.3542   -2.2144    0.3332 C   0  0  0  0  0  0  0  0  0  0  0  0
    2.2475   -0.7812    0.0354 N   0  0  0  0  0  0  0  0  0  0  0  0
    3.4789   -0.0773   -0.0664 C   0  0  0  0  0  0  0  0  0  0  0  0
    3.5405    1.1151   -0.8132 C   0  0  0  0  0  0  0  0  0  0  0  0
    4.7305    1.8358   -0.9523 C   0  0  0  0  0  0  0  0  0  0  0  0
    5.8943    1.3773   -0.3454 C   0  0  0  0  0  0  0  0  0  0  0  0
    5.8650    0.2008    0.3969 C   0  0  0  0  0  0  0  0  0  0  0  0
    4.6710   -0.5183    0.5321 C   0  0  0  0  0  0  0  0  0  0  0  0
    1.0826   -0.1380    0.3624 C   0  0  0  0  0  0  0  0  0  0  0  0
    0.8289    1.0638    0.9918 C   0  0  0  0  0  0  0  0  0  0  0  0
   -0.5751    1.2385    1.0509 C   0  0  0  0  0  0  0  0  0  0  0  0
   -1.1718    0.1435    0.4493 C   0  0  0  0  0  0  0  0  0  0  0  0
   -2.5836   -0.1677    0.2195 C   0  0  0  0  0  0  0  0  0  0  0  0
   -3.0428   -1.4923    0.2241 C   0  0  0  0  0  0  0  0  0  0  0  0
   -4.3925   -1.7839    0.0035 C   0  0  0  0  0  0  0  0  0  0  0  0
   -5.3065   -0.7574   -0.2227 C   0  0  0  0  0  0  0  0  0  0  0  0
   -6.5969   -1.1630   -0.4268 O   0  0  0  0  0  0  0  0  0  0  0  0
   -4.8628    0.5706   -0.2240 C   0  0  0  0  0  0  0  0  0  0  0  0
   -5.7945    1.6765   -0.4543 N   0  0  0  0  0  0  0  0  0  0  0  0
   -6.9836    1.3867   -0.6662 O   0  0  0  0  0  0  0  0  0  0  0  0
   -5.3511    2.8324   -0.4250 O   0  0  0  0  0  0  0  0  0  0  0  0
   -3.5060    0.8644   -0.0029 C   0  0  0  0  0  0  0  0  0  0  0  0
   -0.1398   -0.6701    0.0286 N   0  0  0  0  0  0  0  0  0  0  0  0
    2.5379   -2.3795    1.4013 H   0  0  0  0  0  0  0  0  0  0  0  0
    3.1566   -2.6855   -0.2472 H   0  0  0  0  0  0  0  0  0  0  0  0
    1.4407   -2.7575    0.0666 H   0  0  0  0  0  0  0  0  0  0  0  0
    2.6469    1.4836   -1.3124 H   0  0  0  0  0  0  0  0  0  0  0  0
    4.7427    2.7510   -1.5377 H   0  0  0  0  0  0  0  0  0  0  0  0
    6.8208    1.9351   -0.4498 H   0  0  0  0  0  0  0  0  0  0  0  0
    6.7703   -0.1594    0.8783 H   0  0  0  0  0  0  0  0  0  0  0  0
    4.6927   -1.4176    1.1396 H   0  0  0  0  0  0  0  0  0  0  0  0
    1.5785    1.7405    1.3809 H   0  0  0  0  0  0  0  0  0  0  0  0
   -1.0915    2.0803    1.4942 H   0  0  0  0  0  0  0  0  0  0  0  0
   -2.3621   -2.3174    0.4205 H   0  0  0  0  0  0  0  0  0  0  0  0
   -4.7321   -2.8174    0.0149 H   0  0  0  0  0  0  0  0  0  0  0  0
   -7.1720   -0.3836   -0.5813 H   0  0  0  0  0  0  0  0  0  0  0  0
   -3.1580    1.8961   -0.0140 H   0  0  0  0  0  0  0  0  0  0  0  0
   -0.2577   -1.5104   -0.5149 H   0  0  0  0  0  0  0  0  0  0  0  0
  1  2  1  0
  2  3  1  0
  3  4  2  0
  4  5  1  0
  5  6  2  0
  6  7  1  0
  7  8  2  0
  2  9  1  0
  9 10  2  0
 10 11  1  0
 11 12  2  0
 12 13  1  0
 13 14  1  0
 14 15  2  0
 15 16  1  0
 16 17  1  0
 16 18  2  0
 18 19  1  0
 19 20  2  0
 19 21  1  0
 18 22  1  0
 12 23  1  0
  8  3  1  0
 23  9  1  0
 22 13  2  0
  1 24  1  0
  1 25  1  0
  1 26  1  0
  4 27  1  0
  5 28  1  0
  6 29  1  0
  7 30  1  0
  8 31  1  0
 10 32  1  0
 11 33  1  0
 14 34  1  0
 15 35  1  0
 17 36  1  0
 22 37  1  0
 23 38  1  0
M  CHG  2  19   1  21  -1
M  END
$$$$
