
     RDKit          3D

 49 51  0  0  0  0  0  0  0  0999 V2000
   -3.7676    1.7858   -2.6699 C   0  0  0  0  0  0  0  0  0  0  0  0
   -3.4780    0.7434   -1.5896 N   0  0  0  0  0  0  0  0  0  0  0  0
   -3.5217    1.4258   -0.2292 C   0  0  0  0  0  0  0  0  0  0  0  0
   -4.5642   -0.3313   -1.6592 C   0  0  0  0  0  0  0  0  0  0  0  0
   -2.0663    0.1458   -1.8742 C   0  0  0  0  0  0  0  0  0  0  0  0
   -1.6380   -1.0008   -0.9354 C   0  0  0  0  0  0  0  0  0  0  0  0
   -2.4875   -2.1454   -1.1116 O   0  0  0  0  0  0  0  0  0  0  0  0
   -0.2012   -1.4322   -1.2626 C   0  0  0  0  0  0  0  0  0  0  0  0
    0.1966   -2.4812   -0.3749 O   0  0  0  0  0  0  0  0  0  0  0  0
    0.7831   -2.0117    0.8450 C   0  0  0  0  0  0  0  0  0  0  0  0
    1.0449   -3.2372    1.7280 C   0  0  0  0  0  0  0  0  0  0  0  0
    2.3862   -3.7396    1.2071 C   0  0  0  0  0  0  0  0  0  0  0  0
    3.1469   -2.4475    0.9311 C   0  0  0  0  0  0  0  0  0  0  0  0
    2.1046   -1.4809    0.5883 N   0  0  0  0  0  0  0  0  0  0  0  0
    2.3325   -0.1591    0.7312 C   0  0  0  0  0  0  0  0  0  0  0  0
    1.4494    0.8232    0.8194 N   0  0  0  0  0  0  0  0  0  0  0  0
    2.2307    1.9505    0.9195 C   0  0  0  0  0  0  0  0  0  0  0  0
    1.8920    3.3061    1.0490 C   0  0  0  0  0  0  0  0  0  0  0  0
    2.9385    4.2445    1.1080 C   0  0  0  0  0  0  0  0  0  0  0  0
    4.2822    3.8445    1.0495 C   0  0  0  0  0  0  0  0  0  0  0  0
    4.6335    2.4930    0.9342 C   0  0  0  0  0  0  0  0  0  0  0  0
    3.5702    1.5990    0.8699 C   0  0  0  0  0  0  0  0  0  0  0  0
    3.6398    0.2482    0.7427 O   0  0  0  0  0  0  0  0  0  0  0  0
   -3.0170    2.5750   -2.5956 H   0  0  0  0  0  0  0  0  0  0  0  0
   -4.7663    2.1962   -2.5041 H   0  0  0  0  0  0  0  0  0  0  0  0
   -3.7164    1.2971   -3.6452 H   0  0  0  0  0  0  0  0  0  0  0  0
   -4.4965    1.9160   -0.1185 H   0  0  0  0  0  0  0  0  0  0  0  0
   -3.3995    0.6741    0.5540 H   0  0  0  0  0  0  0  0  0  0  0  0
   -2.7090    2.1637   -0.1896 H   0  0  0  0  0  0  0  0  0  0  0  0
   -4.5067   -0.9571   -0.7612 H   0  0  0  0  0  0  0  0  0  0  0  0
   -5.5418    0.1671   -1.6795 H   0  0  0  0  0  0  0  0  0  0  0  0
   -4.4185   -0.9145   -2.5699 H   0  0  0  0  0  0  0  0  0  0  0  0
   -2.0922   -0.2052   -2.9100 H   0  0  0  0  0  0  0  0  0  0  0  0
   -1.3587    0.9852   -1.8065 H   0  0  0  0  0  0  0  0  0  0  0  0
   -1.7140   -0.7014    0.1160 H   0  0  0  0  0  0  0  0  0  0  0  0
   -1.9877   -2.9129   -0.7590 H   0  0  0  0  0  0  0  0  0  0  0  0
   -0.1680   -1.8620   -2.2696 H   0  0  0  0  0  0  0  0  0  0  0  0
    0.4934   -0.5853   -1.2516 H   0  0  0  0  0  0  0  0  0  0  0  0
    0.0990   -1.3259    1.3583 H   0  0  0  0  0  0  0  0  0  0  0  0
    1.1431   -2.9427    2.7808 H   0  0  0  0  0  0  0  0  0  0  0  0
    0.2640   -3.9984    1.6386 H   0  0  0  0  0  0  0  0  0  0  0  0
    2.9014   -4.3883    1.9200 H   0  0  0  0  0  0  0  0  0  0  0  0
    2.2371   -4.3021    0.2762 H   0  0  0  0  0  0  0  0  0  0  0  0
    3.8605   -2.5741    0.1089 H   0  0  0  0  0  0  0  0  0  0  0  0
    3.6963   -2.1415    1.8315 H   0  0  0  0  0  0  0  0  0  0  0  0
    0.8572    3.6271    1.0908 H   0  0  0  0  0  0  0  0  0  0  0  0
    2.7035    5.3077    1.1907 H   0  0  0  0  0  0  0  0  0  0  0  0
    5.0691    4.5983    1.0952 H   0  0  0  0  0  0  0  0  0  0  0  0
    5.6609    2.1606    0.8930 H   0  0  0  0  0  0  0  0  0  0  0  0
  1  2  1  0
  2  3  1  0
  2  4  1  0
  2  5  1  0
  5  6  1  0
  6  7  1  0
  6  8  1  0
  8  9  1  0
  9 10  1  0
 10 11  1  0
 11 12  1  0
 12 13  1  0
 13 14  1  0
 14 15  1  0
 15 16  2  0
 16 17  1  0
 17 18  2  0
 18 19  1  0
 19 20  2  0
 20 21  1  0
 21 22  2  0
 22 23  1  0
 14 10  1  0
 23 15  1  0
 22 17  1  0
  1 24  1  0
  1 25  1  0
  1 26  1  0
  3 27  1  0
  3 28  1  0
  3 29  1  0
  4 30  1  0
  4 31  1  0
  4 32  1  0
  5 33  1  0
  5 34  1  0
  6 35  1  0
  7 36  1  0
  8 37  1  0
  8 38  1  0
 10 39  1  0
 11 40  1  0
 11 41  1  0
 12 42  1  0
 12 43  1  0
 13 44  1  0
 13 45  1  0
 18 46  1  0
 19 47  1  0
 20 48  1  0
 21 49  1  0
M  CHG  1   2   1
M  END
$$$$
