
     RDKit          3D

 46 47  0  0  0  0  0  0  0  0999 V2000
   -0.0906   -2.9699   -1.1693 C   0  0  0  0  0  0  0  0  0  0  0  0
    0.3057   -1.9539   -0.1592 C   0  0  0  0  0  0  0  0  0  0  0  0
    1.5250   -2.0485    0.4654 N   0  0  0  0  0  0  0  0  0  0  0  0
    1.7311   -0.9553    1.2667 C   0  0  0  0  0  0  0  0  0  0  0  0
    2.9874   -0.8484    1.9113 C   0  0  0  0  0  0  0  0  0  0  0  0
    3.9051    0.0847    1.5756 C   0  0  0  0  0  0  0  0  0  0  0  0
    5.1365    0.1446    2.2084 N   0  0  0  0  0  0  0  0  0  0  0  0
    3.6814    1.0470    0.4838 C   0  0  0  0  0  0  0  0  0  0  0  0
    3.3837    2.3855    0.8900 C   0  0  0  0  0  0  0  0  0  0  0  0
    3.1606    3.4722    1.2289 N   0  0  0  0  0  0  0  0  0  0  0  0
    3.7425    0.7108   -0.8247 C   0  0  0  0  0  0  0  0  0  0  0  0
    3.5007    1.6668   -1.8512 C   0  0  0  0  0  0  0  0  0  0  0  0
    3.3130    2.4517   -2.6843 N   0  0  0  0  0  0  0  0  0  0  0  0
    4.0548   -0.6178   -1.2331 C   0  0  0  0  0  0  0  0  0  0  0  0
    4.2923   -1.7094   -1.5502 N   0  0  0  0  0  0  0  0  0  0  0  0
    0.5747   -0.1909    1.2510 C   0  0  0  0  0  0  0  0  0  0  0  0
    0.3107    1.0176    2.0819 C   0  0  0  0  0  0  0  0  0  0  0  0
   -0.3153   -0.8138    0.3160 C   0  0  0  0  0  0  0  0  0  0  0  0
   -1.5468   -0.3656   -0.0451 N   0  0  0  0  0  0  0  0  0  0  0  0
   -1.8148    1.0649   -0.2698 C   0  0  0  0  0  0  0  0  0  0  0  0
   -2.9288    1.2738   -1.3223 C   0  0  0  0  0  0  0  0  0  0  0  0
   -4.2154    0.6055   -1.0263 N   0  0  0  0  0  0  0  0  0  0  0  0
   -5.1753    1.5211   -0.4160 C   0  0  0  0  0  0  0  0  0  0  0  0
   -4.0136   -0.5835   -0.1669 C   0  0  0  0  0  0  0  0  0  0  0  0
   -2.6503   -1.2801   -0.3779 C   0  0  0  0  0  0  0  0  0  0  0  0
    0.7522   -3.6132   -1.4442 H   0  0  0  0  0  0  0  0  0  0  0  0
   -0.8855   -3.6121   -0.7785 H   0  0  0  0  0  0  0  0  0  0  0  0
   -0.4436   -2.4862   -2.0853 H   0  0  0  0  0  0  0  0  0  0  0  0
    2.2063   -2.7764    0.2853 H   0  0  0  0  0  0  0  0  0  0  0  0
    3.2098   -1.5774    2.6872 H   0  0  0  0  0  0  0  0  0  0  0  0
    5.1682   -0.3634    3.0918 H   0  0  0  0  0  0  0  0  0  0  0  0
    5.5091    1.0867    2.3222 H   0  0  0  0  0  0  0  0  0  0  0  0
    1.0416    1.1173    2.8908 H   0  0  0  0  0  0  0  0  0  0  0  0
   -0.6783    0.9563    2.5471 H   0  0  0  0  0  0  0  0  0  0  0  0
    0.3572    1.9241    1.4718 H   0  0  0  0  0  0  0  0  0  0  0  0
   -0.9108    1.5722   -0.6284 H   0  0  0  0  0  0  0  0  0  0  0  0
   -2.1178    1.5339    0.6734 H   0  0  0  0  0  0  0  0  0  0  0  0
   -3.0717    2.3471   -1.4992 H   0  0  0  0  0  0  0  0  0  0  0  0
   -2.5716    0.8653   -2.2771 H   0  0  0  0  0  0  0  0  0  0  0  0
   -6.1243    1.0094   -0.2206 H   0  0  0  0  0  0  0  0  0  0  0  0
   -4.8069    1.9404    0.5271 H   0  0  0  0  0  0  0  0  0  0  0  0
   -5.4005    2.3498   -1.0964 H   0  0  0  0  0  0  0  0  0  0  0  0
   -4.0844   -0.3062    0.8943 H   0  0  0  0  0  0  0  0  0  0  0  0
   -4.8187   -1.2996   -0.3682 H   0  0  0  0  0  0  0  0  0  0  0  0
   -2.5666   -1.6104   -1.4197 H   0  0  0  0  0  0  0  0  0  0  0  0
   -2.6176   -2.1665    0.2670 H   0  0  0  0  0  0  0  0  0  0  0  0
  1  2  1  0
  2  3  1  0
  3  4  1  0
  4  5  1  0
  5  6  2  3
  6  7  1  0
  6  8  1  0
  8  9  1  0
  9 10  3  0
  8 11  2  3
 11 12  1  0
 12 13  3  0
 11 14  1  0
 14 15  3  0
  4 16  2  0
 16 17  1  0
 16 18  1  0
 18 19  1  0
 19 20  1  0
 20 21  1  0
 21 22  1  0
 22 23  1  0
 22 24  1  0
 24 25  1  0
 18  2  2  0
 25 19  1  0
  1 26  1  0
  1 27  1  0
  1 28  1  0
  3 29  1  0
  5 30  1  0
  7 31  1  0
  7 32  1  0
 17 33  1  0
 17 34  1  0
 17 35  1  0
 20 36  1  0
 20 37  1  0
 21 38  1  0
 21 39  1  0
 23 40  1  0
 23 41  1  0
 23 42  1  0
 24 43  1  0
 24 44  1  0
 25 45  1  0
 25 46  1  0
M  END
$$$$
