
     RDKit          3D

 44 45  0  0  0  0  0  0  0  0999 V2000
   -5.5790    0.1353   -1.2806 C   0  0  0  0  0  0  0  0  0  0  0  0
   -5.0645    0.4791    0.1170 N   0  0  0  0  0  0  0  0  0  0  0  0
   -5.8038    1.7270    0.6018 C   0  0  0  0  0  0  0  0  0  0  0  0
   -5.3738   -0.6689    1.0643 C   0  0  0  0  0  0  0  0  0  0  0  0
   -3.5444    0.8090    0.0986 C   0  0  0  0  0  0  0  0  0  0  0  0
   -2.6350   -0.3195   -0.4295 C   0  0  0  0  0  0  0  0  0  0  0  0
   -2.8888   -0.5461   -1.8228 O   0  0  0  0  0  0  0  0  0  0  0  0
   -1.1625    0.0751   -0.2499 C   0  0  0  0  0  0  0  0  0  0  0  0
   -0.3671   -1.0301   -0.6968 O   0  0  0  0  0  0  0  0  0  0  0  0
    0.9882   -0.7920   -0.5696 C   0  0  0  0  0  0  0  0  0  0  0  0
    1.8377   -1.7891   -1.0150 C   0  0  0  0  0  0  0  0  0  0  0  0
    3.2127   -1.5839   -0.9060 C   0  0  0  0  0  0  0  0  0  0  0  0
    3.7091   -0.3951   -0.3566 C   0  0  0  0  0  0  0  0  0  0  0  0
    5.1518   -0.1420   -0.2298 C   0  0  0  0  0  0  0  0  0  0  0  0
    5.7142    0.2552    0.9977 C   0  0  0  0  0  0  0  0  0  0  0  0
    7.0863    0.4955    1.1172 C   0  0  0  0  0  0  0  0  0  0  0  0
    7.9127    0.3416    0.0102 C   0  0  0  0  0  0  0  0  0  0  0  0
    9.2251    0.5776    0.1476 F   0  0  0  0  0  0  0  0  0  0  0  0
    7.3822   -0.0505   -1.2143 C   0  0  0  0  0  0  0  0  0  0  0  0
    8.3963   -0.2418   -2.5918 Cl  0  0  0  0  0  0  0  0  0  0  0  0
    6.0107   -0.2917   -1.3347 C   0  0  0  0  0  0  0  0  0  0  0  0
    2.7549    0.5363    0.0594 C   0  0  0  0  0  0  0  0  0  0  0  0
    1.4108    0.3684   -0.0299 N   0  0  0  0  0  0  0  0  0  0  0  0
   -6.6733    0.1331   -1.2498 H   0  0  0  0  0  0  0  0  0  0  0  0
   -5.2333   -0.8637   -1.5553 H   0  0  0  0  0  0  0  0  0  0  0  0
   -5.2236    0.8965   -1.9806 H   0  0  0  0  0  0  0  0  0  0  0  0
   -5.6039    2.5422   -0.0999 H   0  0  0  0  0  0  0  0  0  0  0  0
   -5.4359    1.9796    1.6007 H   0  0  0  0  0  0  0  0  0  0  0  0
   -6.8752    1.5078    0.6362 H   0  0  0  0  0  0  0  0  0  0  0  0
   -4.9225   -1.5849    0.6760 H   0  0  0  0  0  0  0  0  0  0  0  0
   -4.9653   -0.4245    2.0490 H   0  0  0  0  0  0  0  0  0  0  0  0
   -6.4602   -0.7879    1.1205 H   0  0  0  0  0  0  0  0  0  0  0  0
   -3.2773    1.0690    1.1296 H   0  0  0  0  0  0  0  0  0  0  0  0
   -3.4407    1.7001   -0.5327 H   0  0  0  0  0  0  0  0  0  0  0  0
   -2.8206   -1.2642    0.0902 H   0  0  0  0  0  0  0  0  0  0  0  0
   -2.1442   -1.0884   -2.1576 H   0  0  0  0  0  0  0  0  0  0  0  0
   -0.9424    0.9569   -0.8654 H   0  0  0  0  0  0  0  0  0  0  0  0
   -0.9667    0.2824    0.8094 H   0  0  0  0  0  0  0  0  0  0  0  0
    1.4465   -2.7078   -1.4371 H   0  0  0  0  0  0  0  0  0  0  0  0
    3.8925   -2.3640   -1.2435 H   0  0  0  0  0  0  0  0  0  0  0  0
    5.0887    0.3673    1.8822 H   0  0  0  0  0  0  0  0  0  0  0  0
    7.5168    0.7974    2.0677 H   0  0  0  0  0  0  0  0  0  0  0  0
    5.6095   -0.5875   -2.3025 H   0  0  0  0  0  0  0  0  0  0  0  0
    3.0575    1.4911    0.4850 H   0  0  0  0  0  0  0  0  0  0  0  0
  1  2  1  0
  2  3  1  0
  2  4  1  0
  2  5  1  0
  5  6  1  0
  6  7  1  0
  6  8  1  0
  8  9  1  0
  9 10  1  0
 10 11  2  0
 11 12  1  0
 12 13  2  0
 13 14  1  0
 14 15  1  0
 15 16  2  0
 16 17  1  0
 17 18  1  0
 17 19  2  0
 19 20  1  0
 19 21  1  0
 13 22  1  0
 22 23  2  0
 23 10  1  0
 21 14  2  0
  1 24  1  0
  1 25  1  0
  1 26  1  0
  3 27  1  0
  3 28  1  0
  3 29  1  0
  4 30  1  0
  4 31  1  0
  4 32  1  0
  5 33  1  0
  5 34  1  0
  6 35  1  0
  7 36  1  0
  8 37  1  0
  8 38  1  0
 11 39  1  0
 12 40  1  0
 15 41  1  0
 16 42  1  0
 21 43  1  0
 22 44  1  0
M  CHG  1   2   1
M  END
$$$$
