
     RDKit          3D

 32 34  0  0  0  0  0  0  0  0999 V2000
    6.3999    0.6703   -0.2972 O   0  0  0  0  0  0  0  0  0  0  0  0
    5.2885    1.0632    0.0946 N   0  0  0  0  0  0  0  0  0  0  0  0
    5.0925    2.1403    0.6739 O   0  0  0  0  0  0  0  0  0  0  0  0
    4.1405    0.1871   -0.1472 C   0  0  0  0  0  0  0  0  0  0  0  0
    2.8648    0.6184    0.2563 C   0  0  0  0  0  0  0  0  0  0  0  0
    1.7407   -0.1914    0.0415 C   0  0  0  0  0  0  0  0  0  0  0  0
    0.4140    0.2620    0.4641 C   0  0  0  0  0  0  0  0  0  0  0  0
    0.0293    1.0872    1.5076 C   0  0  0  0  0  0  0  0  0  0  0  0
   -1.3821    1.2176    1.4750 C   0  0  0  0  0  0  0  0  0  0  0  0
   -1.8530    0.4785    0.4064 C   0  0  0  0  0  0  0  0  0  0  0  0
   -3.1915    0.2389   -0.1220 C   0  0  0  0  0  0  0  0  0  0  0  0
   -4.3348    0.7919    0.4410 C   0  0  0  0  0  0  0  0  0  0  0  0
   -5.5681    0.5028   -0.1381 C   0  0  0  0  0  0  0  0  0  0  0  0
   -5.6205   -0.3240   -1.2539 C   0  0  0  0  0  0  0  0  0  0  0  0
   -4.4306   -0.8316   -1.7486 C   0  0  0  0  0  0  0  0  0  0  0  0
   -3.2185   -0.5712   -1.2107 N   0  0  0  0  0  0  0  0  0  0  0  0
   -0.7466   -0.0847   -0.1910 N   0  0  0  0  0  0  0  0  0  0  0  0
    1.9181   -1.4378   -0.5760 C   0  0  0  0  0  0  0  0  0  0  0  0
    3.1874   -1.8660   -0.9776 C   0  0  0  0  0  0  0  0  0  0  0  0
    4.3019   -1.0577   -0.7675 C   0  0  0  0  0  0  0  0  0  0  0  0
    5.4894   -1.5796   -1.2018 O   0  0  0  0  0  0  0  0  0  0  0  0
    2.7378    1.5910    0.7284 H   0  0  0  0  0  0  0  0  0  0  0  0
    0.6924    1.5441    2.2313 H   0  0  0  0  0  0  0  0  0  0  0  0
   -1.9826    1.7952    2.1654 H   0  0  0  0  0  0  0  0  0  0  0  0
   -4.2802    1.4356    1.3110 H   0  0  0  0  0  0  0  0  0  0  0  0
   -6.4798    0.9206    0.2794 H   0  0  0  0  0  0  0  0  0  0  0  0
   -6.5654   -0.5671   -1.7269 H   0  0  0  0  0  0  0  0  0  0  0  0
   -4.4211   -1.4819   -2.6187 H   0  0  0  0  0  0  0  0  0  0  0  0
   -0.8180   -0.6626   -1.0184 H   0  0  0  0  0  0  0  0  0  0  0  0
    1.0737   -2.1046   -0.7379 H   0  0  0  0  0  0  0  0  0  0  0  0
    3.3050   -2.8380   -1.4520 H   0  0  0  0  0  0  0  0  0  0  0  0
    6.2172   -0.9464   -1.0254 H   0  0  0  0  0  0  0  0  0  0  0  0
  1  2  2  0
  2  3  1  0
  2  4  1  0
  4  5  1  0
  5  6  2  0
  6  7  1  0
  7  8  2  0
  8  9  1  0
  9 10  2  0
 10 11  1  0
 11 12  2  0
 12 13  1  0
 13 14  2  0
 14 15  1  0
 15 16  2  0
 10 17  1  0
  6 18  1  0
 18 19  2  0
 19 20  1  0
 20 21  1  0
 20  4  2  0
 17  7  1  0
 16 11  1  0
  5 22  1  0
  8 23  1  0
  9 24  1  0
 12 25  1  0
 13 26  1  0
 14 27  1  0
 15 28  1  0
 17 29  1  0
 18 30  1  0
 19 31  1  0
 21 32  1  0
M  CHG  2   2   1   3  -1
M  END
$$$$
