
     RDKit          3D

 42 45  0  0  0  0  0  0  0  0999 V2000
    5.2181   -0.2475    1.1208 C   0  0  0  0  0  0  0  0  0  0  0  0
    4.1914    0.1383    0.0978 C   0  0  0  0  0  0  0  0  0  0  0  0
    4.5817    0.6887   -1.1282 C   0  0  0  0  0  0  0  0  0  0  0  0
    3.6234    1.0678   -2.0682 C   0  0  0  0  0  0  0  0  0  0  0  0
    2.2661    0.9082   -1.7871 C   0  0  0  0  0  0  0  0  0  0  0  0
    1.8586    0.3651   -0.5643 C   0  0  0  0  0  0  0  0  0  0  0  0
    0.4255    0.2582   -0.2709 C   0  0  0  0  0  0  0  0  0  0  0  0
   -0.2724   -0.8714   -0.0725 C   0  0  0  0  0  0  0  0  0  0  0  0
    0.2695   -2.2819   -0.1080 C   0  0  0  0  0  0  0  0  0  0  0  0
    1.4035   -2.6399   -0.3595 O   0  0  0  0  0  0  0  0  0  0  0  0
   -0.8161   -3.0815    0.2111 N   0  0  0  0  0  0  0  0  0  0  0  0
   -0.7997   -4.5150    0.3052 C   0  0  0  0  0  0  0  0  0  0  0  0
   -1.9742   -2.3255    0.4150 C   0  0  0  0  0  0  0  0  0  0  0  0
   -3.1632   -2.8512    0.7282 N   0  0  0  0  0  0  0  0  0  0  0  0
   -4.1340   -1.9423    0.8704 C   0  0  0  0  0  0  0  0  0  0  0  0
   -4.0046   -0.6111    0.7169 N   0  0  0  0  0  0  0  0  0  0  0  0
   -2.7768   -0.1360    0.3873 C   0  0  0  0  0  0  0  0  0  0  0  0
   -2.7276    1.3137    0.2012 C   0  0  0  0  0  0  0  0  0  0  0  0
   -2.7094    1.8754   -1.0875 C   0  0  0  0  0  0  0  0  0  0  0  0
   -2.6603    3.2603   -1.2643 C   0  0  0  0  0  0  0  0  0  0  0  0
   -2.6375    4.1025   -0.1540 C   0  0  0  0  0  0  0  0  0  0  0  0
   -2.6711    3.5571    1.1275 C   0  0  0  0  0  0  0  0  0  0  0  0
   -2.6506    4.5974    2.4980 Cl  0  0  0  0  0  0  0  0  0  0  0  0
   -2.7194    2.1752    1.3095 C   0  0  0  0  0  0  0  0  0  0  0  0
   -1.7026   -0.9793    0.2377 C   0  0  0  0  0  0  0  0  0  0  0  0
    2.8250   -0.0030    0.3794 C   0  0  0  0  0  0  0  0  0  0  0  0
    5.4169    0.5968    1.7880 H   0  0  0  0  0  0  0  0  0  0  0  0
    4.8732   -1.0983    1.7178 H   0  0  0  0  0  0  0  0  0  0  0  0
    6.1557   -0.5472    0.6409 H   0  0  0  0  0  0  0  0  0  0  0  0
    5.6362    0.8200   -1.3599 H   0  0  0  0  0  0  0  0  0  0  0  0
    3.9352    1.4876   -3.0208 H   0  0  0  0  0  0  0  0  0  0  0  0
    1.5322    1.2093   -2.5302 H   0  0  0  0  0  0  0  0  0  0  0  0
   -0.0570    1.2293   -0.2248 H   0  0  0  0  0  0  0  0  0  0  0  0
   -1.1131   -4.8168    1.3090 H   0  0  0  0  0  0  0  0  0  0  0  0
   -1.4835   -4.9348   -0.4385 H   0  0  0  0  0  0  0  0  0  0  0  0
    0.2072   -4.8982    0.1173 H   0  0  0  0  0  0  0  0  0  0  0  0
   -5.1210   -2.3100    1.1316 H   0  0  0  0  0  0  0  0  0  0  0  0
   -2.7391    1.2311   -1.9650 H   0  0  0  0  0  0  0  0  0  0  0  0
   -2.6460    3.6813   -2.2668 H   0  0  0  0  0  0  0  0  0  0  0  0
   -2.6014    5.1799   -0.2933 H   0  0  0  0  0  0  0  0  0  0  0  0
   -2.7554    1.7636    2.3160 H   0  0  0  0  0  0  0  0  0  0  0  0
    2.5165   -0.4161    1.3373 H   0  0  0  0  0  0  0  0  0  0  0  0
  1  2  1  0
  2  3  2  0
  3  4  1  0
  4  5  2  0
  5  6  1  0
  6  7  1  0
  7  8  2  3
  8  9  1  0
  9 10  2  0
  9 11  1  0
 11 12  1  0
 11 13  1  0
 13 14  2  0
 14 15  1  0
 15 16  2  0
 16 17  1  0
 17 18  1  0
 18 19  2  0
 19 20  1  0
 20 21  2  0
 21 22  1  0
 22 23  1  0
 22 24  2  0
 17 25  2  0
  6 26  2  0
 26  2  1  0
 25  8  1  0
 25 13  1  0
 24 18  1  0
  1 27  1  0
  1 28  1  0
  1 29  1  0
  3 30  1  0
  4 31  1  0
  5 32  1  0
  7 33  1  0
 12 34  1  0
 12 35  1  0
 12 36  1  0
 15 37  1  0
 19 38  1  0
 20 39  1  0
 21 40  1  0
 24 41  1  0
 26 42  1  0
M  END
$$$$
