
     RDKit          3D

 37 38  0  0  0  0  0  0  0  0999 V2000
    5.2261    0.8704   -0.2228 C   0  0  0  0  0  0  0  0  0  0  0  0
    4.1308   -0.0170    0.3594 C   0  0  0  0  0  0  0  0  0  0  0  0
    3.0331   -0.2378   -0.5886 N   0  0  0  0  0  0  0  0  0  0  0  0
    2.1575    0.9423   -0.7611 C   0  0  0  0  0  0  0  0  0  0  0  0
    0.8384    0.9345    0.0500 C   0  0  0  0  0  0  0  0  0  0  0  0
    0.0448   -0.2766   -0.2175 N   0  0  0  0  0  0  0  0  0  0  0  0
   -1.3419   -0.2620   -0.1537 C   0  0  0  0  0  0  0  0  0  0  0  0
   -1.9998    0.6495    0.6970 C   0  0  0  0  0  0  0  0  0  0  0  0
   -3.4020    0.7044    0.8135 C   0  0  0  0  0  0  0  0  0  0  0  0
   -3.9853    1.7028    1.7416 C   0  0  0  0  0  0  0  0  0  0  0  0
   -3.3654    2.5068    2.4121 O   0  0  0  0  0  0  0  0  0  0  0  0
   -5.3288    1.6482    1.7867 O   0  0  0  0  0  0  0  0  0  0  0  0
   -4.2027   -0.1651    0.0727 C   0  0  0  0  0  0  0  0  0  0  0  0
   -3.5828   -1.0726   -0.7699 C   0  0  0  0  0  0  0  0  0  0  0  0
   -4.3100   -1.9508   -1.5328 O   0  0  0  0  0  0  0  0  0  0  0  0
   -2.1842   -1.1244   -0.8830 C   0  0  0  0  0  0  0  0  0  0  0  0
   -1.6824   -2.0433   -1.7762 O   0  0  0  0  0  0  0  0  0  0  0  0
    0.7894   -1.4379   -0.7314 C   0  0  0  0  0  0  0  0  0  0  0  0
    2.2388   -1.4244   -0.1901 C   0  0  0  0  0  0  0  0  0  0  0  0
    5.6029    0.4613   -1.1663 H   0  0  0  0  0  0  0  0  0  0  0  0
    4.8801    1.8917   -0.4052 H   0  0  0  0  0  0  0  0  0  0  0  0
    6.0678    0.9283    0.4755 H   0  0  0  0  0  0  0  0  0  0  0  0
    4.6017   -0.9786    0.6014 H   0  0  0  0  0  0  0  0  0  0  0  0
    3.7630    0.4050    1.3028 H   0  0  0  0  0  0  0  0  0  0  0  0
    2.6892    1.8785   -0.5599 H   0  0  0  0  0  0  0  0  0  0  0  0
    1.8937    0.9822   -1.8265 H   0  0  0  0  0  0  0  0  0  0  0  0
    1.0627    0.9920    1.1219 H   0  0  0  0  0  0  0  0  0  0  0  0
    0.2803    1.8364   -0.2300 H   0  0  0  0  0  0  0  0  0  0  0  0
   -1.4130    1.3264    1.3153 H   0  0  0  0  0  0  0  0  0  0  0  0
   -5.5666    2.3501    2.4291 H   0  0  0  0  0  0  0  0  0  0  0  0
   -5.2833   -0.1276    0.1568 H   0  0  0  0  0  0  0  0  0  0  0  0
   -5.2553   -1.8038   -1.3537 H   0  0  0  0  0  0  0  0  0  0  0  0
   -2.4720   -2.4770   -2.1549 H   0  0  0  0  0  0  0  0  0  0  0  0
    0.8041   -1.4257   -1.8277 H   0  0  0  0  0  0  0  0  0  0  0  0
    0.3307   -2.3735   -0.3905 H   0  0  0  0  0  0  0  0  0  0  0  0
    2.1817   -1.4890    0.9059 H   0  0  0  0  0  0  0  0  0  0  0  0
    2.7586   -2.3238   -0.5403 H   0  0  0  0  0  0  0  0  0  0  0  0
  1  2  1  0
  2  3  1  0
  3  4  1  0
  4  5  1  0
  5  6  1  0
  6  7  1  0
  7  8  1  0
  8  9  2  0
  9 10  1  0
 10 11  2  0
 10 12  1  0
  9 13  1  0
 13 14  2  0
 14 15  1  0
 14 16  1  0
 16 17  1  0
  6 18  1  0
 18 19  1  0
 19  3  1  0
 16  7  2  0
  1 20  1  0
  1 21  1  0
  1 22  1  0
  2 23  1  0
  2 24  1  0
  4 25  1  0
  4 26  1  0
  5 27  1  0
  5 28  1  0
  8 29  1  0
 12 30  1  0
 13 31  1  0
 15 32  1  0
 17 33  1  0
 18 34  1  0
 18 35  1  0
 19 36  1  0
 19 37  1  0
M  END
$$$$
