
     RDKit          3D

 36 36  0  0  0  0  0  0  0  0999 V2000
   -3.2825   -0.7498    0.7944 C   0  0  0  0  0  0  0  0  0  0  0  0
   -2.9678    0.0952   -0.4426 N   0  0  0  0  0  0  0  0  0  0  0  0
   -2.2472   -0.7613   -1.4749 C   0  0  0  0  0  0  0  0  0  0  0  0
   -4.3109    0.5343   -1.0540 C   0  0  0  0  0  0  0  0  0  0  0  0
   -2.1916    1.3955   -0.0812 C   0  0  0  0  0  0  0  0  0  0  0  0
   -0.9364    1.2901    0.8191 C   0  0  0  0  0  0  0  0  0  0  0  0
   -1.2459    0.6536    2.0664 O   0  0  0  0  0  0  0  0  0  0  0  0
    0.2723    0.6127    0.1641 C   0  0  0  0  0  0  0  0  0  0  0  0
    1.4299    0.9465    0.9523 O   0  0  0  0  0  0  0  0  0  0  0  0
    2.5773    0.2955    0.5834 C   0  0  0  0  0  0  0  0  0  0  0  0
    3.3724   -0.1810    1.6308 C   0  0  0  0  0  0  0  0  0  0  0  0
    4.5686   -0.8584    1.3581 C   0  0  0  0  0  0  0  0  0  0  0  0
    4.9831   -1.0452    0.0310 C   0  0  0  0  0  0  0  0  0  0  0  0
    6.1799   -1.7727   -0.2672 C   0  0  0  0  0  0  0  0  0  0  0  0
    7.1310   -2.3893   -0.5230 N   0  0  0  0  0  0  0  0  0  0  0  0
    4.2084   -0.5342   -1.0157 C   0  0  0  0  0  0  0  0  0  0  0  0
    3.0131    0.1270   -0.7342 C   0  0  0  0  0  0  0  0  0  0  0  0
    2.3168    0.6301   -1.7663 F   0  0  0  0  0  0  0  0  0  0  0  0
   -2.3665   -1.2370    1.1359 H   0  0  0  0  0  0  0  0  0  0  0  0
   -4.0031   -1.5238    0.5071 H   0  0  0  0  0  0  0  0  0  0  0  0
   -3.7125   -0.0958    1.5625 H   0  0  0  0  0  0  0  0  0  0  0  0
   -1.3904   -1.2329   -1.0026 H   0  0  0  0  0  0  0  0  0  0  0  0
   -1.9473   -0.1191   -2.3116 H   0  0  0  0  0  0  0  0  0  0  0  0
   -2.9352   -1.5445   -1.8160 H   0  0  0  0  0  0  0  0  0  0  0  0
   -4.8881   -0.3633   -1.3102 H   0  0  0  0  0  0  0  0  0  0  0  0
   -4.8493    1.1300   -0.3065 H   0  0  0  0  0  0  0  0  0  0  0  0
   -4.1033    1.1314   -1.9521 H   0  0  0  0  0  0  0  0  0  0  0  0
   -1.9448    1.8880   -1.0301 H   0  0  0  0  0  0  0  0  0  0  0  0
   -2.9207    2.0249    0.4452 H   0  0  0  0  0  0  0  0  0  0  0  0
   -0.6521    2.3200    1.0792 H   0  0  0  0  0  0  0  0  0  0  0  0
   -0.4471    0.7425    2.6285 H   0  0  0  0  0  0  0  0  0  0  0  0
    0.1525   -0.4771    0.1831 H   0  0  0  0  0  0  0  0  0  0  0  0
    0.3775    0.9845   -0.8622 H   0  0  0  0  0  0  0  0  0  0  0  0
    3.0543   -0.0426    2.6648 H   0  0  0  0  0  0  0  0  0  0  0  0
    5.1708   -1.2423    2.1841 H   0  0  0  0  0  0  0  0  0  0  0  0
    4.5344   -0.6316   -2.0527 H   0  0  0  0  0  0  0  0  0  0  0  0
  1  2  1  0
  2  3  1  0
  2  4  1  0
  2  5  1  0
  5  6  1  0
  6  7  1  0
  6  8  1  0
  8  9  1  0
  9 10  1  0
 10 11  1  0
 11 12  2  0
 12 13  1  0
 13 14  1  0
 14 15  3  0
 13 16  2  0
 16 17  1  0
 17 18  1  0
 17 10  2  0
  1 19  1  0
  1 20  1  0
  1 21  1  0
  3 22  1  0
  3 23  1  0
  3 24  1  0
  4 25  1  0
  4 26  1  0
  4 27  1  0
  5 28  1  0
  5 29  1  0
  6 30  1  0
  7 31  1  0
  8 32  1  0
  8 33  1  0
 11 34  1  0
 12 35  1  0
 16 36  1  0
M  CHG  1   2   1
M  END
$$$$
