
     RDKit          3D

 49 50  0  0  0  0  0  0  0  0999 V2000
    3.7607   -0.1235    2.0882 C   0  0  0  0  0  0  0  0  0  0  0  0
    2.9652    0.3131    0.8529 N   0  0  0  0  0  0  0  0  0  0  0  0
    1.6549    0.9117    1.3431 C   0  0  0  0  0  0  0  0  0  0  0  0
    3.7760    1.3714    0.1210 C   0  0  0  0  0  0  0  0  0  0  0  0
    2.7248   -0.9545   -0.0124 C   0  0  0  0  0  0  0  0  0  0  0  0
    2.2990   -0.7772   -1.4918 C   0  0  0  0  0  0  0  0  0  0  0  0
    3.3092   -0.0836   -2.2322 O   0  0  0  0  0  0  0  0  0  0  0  0
    0.9262   -0.1515   -1.7383 C   0  0  0  0  0  0  0  0  0  0  0  0
   -0.0515   -0.7656   -0.9003 O   0  0  0  0  0  0  0  0  0  0  0  0
   -1.3938   -0.3119   -1.1930 C   0  0  0  0  0  0  0  0  0  0  0  0
   -1.9789   -1.1238   -2.3675 C   0  0  0  0  0  0  0  0  0  0  0  0
   -2.8526   -2.2826   -1.8989 C   0  0  0  0  0  0  0  0  0  0  0  0
   -4.0380   -1.7991   -1.0634 C   0  0  0  0  0  0  0  0  0  0  0  0
   -3.7252   -0.5591   -0.2230 C   0  0  0  0  0  0  0  0  0  0  0  0
   -2.2319   -0.4641    0.1019 C   0  0  2  0  0  0  0  0  0  0  0  0
   -1.9704    0.6702    1.0710 C   0  0  0  0  0  0  0  0  0  0  0  0
   -1.7396    0.4084    2.4184 C   0  0  0  0  0  0  0  0  0  0  0  0
   -1.4746    1.3817    3.3214 N   0  0  0  0  0  0  0  0  0  0  0  0
   -1.5438    2.6467    2.8513 C   0  0  0  0  0  0  0  0  0  0  0  0
   -1.7943    2.9228    1.5207 C   0  0  0  0  0  0  0  0  0  0  0  0
   -1.9788    1.9450    0.6029 N   0  0  0  0  0  0  0  0  0  0  0  0
    4.7270   -0.5173    1.7586 H   0  0  0  0  0  0  0  0  0  0  0  0
    3.1882   -0.8950    2.6117 H   0  0  0  0  0  0  0  0  0  0  0  0
    3.9095    0.7467    2.7349 H   0  0  0  0  0  0  0  0  0  0  0  0
    1.8836    1.6954    2.0723 H   0  0  0  0  0  0  0  0  0  0  0  0
    1.0728    0.1165    1.8138 H   0  0  0  0  0  0  0  0  0  0  0  0
    1.1214    1.3517    0.5026 H   0  0  0  0  0  0  0  0  0  0  0  0
    3.1650    1.8023   -0.6754 H   0  0  0  0  0  0  0  0  0  0  0  0
    4.6870    0.9078   -0.2676 H   0  0  0  0  0  0  0  0  0  0  0  0
    4.0346    2.1593    0.8359 H   0  0  0  0  0  0  0  0  0  0  0  0
    2.0088   -1.5800    0.5335 H   0  0  0  0  0  0  0  0  0  0  0  0
    3.6893   -1.4785   -0.0185 H   0  0  0  0  0  0  0  0  0  0  0  0
    2.2650   -1.7958   -1.9013 H   0  0  0  0  0  0  0  0  0  0  0  0
    3.1274   -0.2164   -3.1830 H   0  0  0  0  0  0  0  0  0  0  0  0
    0.6662   -0.2824   -2.7955 H   0  0  0  0  0  0  0  0  0  0  0  0
    0.9547    0.9293   -1.5659 H   0  0  0  0  0  0  0  0  0  0  0  0
   -1.3459    0.7399   -1.5033 H   0  0  0  0  0  0  0  0  0  0  0  0
   -2.5965   -0.4577   -2.9835 H   0  0  0  0  0  0  0  0  0  0  0  0
   -1.1880   -1.5173   -3.0144 H   0  0  0  0  0  0  0  0  0  0  0  0
   -3.2211   -2.8508   -2.7607 H   0  0  0  0  0  0  0  0  0  0  0  0
   -2.2440   -2.9771   -1.3062 H   0  0  0  0  0  0  0  0  0  0  0  0
   -4.8887   -1.5750   -1.7184 H   0  0  0  0  0  0  0  0  0  0  0  0
   -4.3633   -2.6179   -0.4102 H   0  0  0  0  0  0  0  0  0  0  0  0
   -4.0427    0.3379   -0.7720 H   0  0  0  0  0  0  0  0  0  0  0  0
   -4.3296   -0.5829    0.6924 H   0  0  0  0  0  0  0  0  0  0  0  0
   -1.9223   -1.3948    0.5994 H   0  0  0  0  0  0  0  0  0  0  0  0
   -1.7497   -0.6015    2.8164 H   0  0  0  0  0  0  0  0  0  0  0  0
   -1.3963    3.4371    3.5791 H   0  0  0  0  0  0  0  0  0  0  0  0
   -1.8549    3.9414    1.1530 H   0  0  0  0  0  0  0  0  0  0  0  0
  1  2  1  0
  2  3  1  0
  2  4  1  0
  2  5  1  0
  5  6  1  0
  6  7  1  0
  6  8  1  0
  8  9  1  0
  9 10  1  0
 10 11  1  0
 11 12  1  0
 12 13  1  0
 13 14  1  0
 14 15  1  0
 15 16  1  0
 16 17  2  0
 17 18  1  0
 18 19  2  0
 19 20  1  0
 20 21  2  0
 15 10  1  0
 21 16  1  0
  1 22  1  0
  1 23  1  0
  1 24  1  0
  3 25  1  0
  3 26  1  0
  3 27  1  0
  4 28  1  0
  4 29  1  0
  4 30  1  0
  5 31  1  0
  5 32  1  0
  6 33  1  0
  7 34  1  0
  8 35  1  0
  8 36  1  0
 10 37  1  0
 11 38  1  0
 11 39  1  0
 12 40  1  0
 12 41  1  0
 13 42  1  0
 13 43  1  0
 14 44  1  0
 14 45  1  0
 15 46  1  1
 17 47  1  0
 19 48  1  0
 20 49  1  0
M  CHG  1   2   1
M  END
$$$$
