
     RDKit          3D

 43 45  0  0  0  0  0  0  0  0999 V2000
   -3.2494    3.6464    0.8458 O   0  0  0  0  0  0  0  0  0  0  0  0
   -4.1005    2.7905    0.6915 C   0  0  0  0  0  0  0  0  0  0  0  0
   -5.4069    3.1062    0.6430 O   0  0  0  0  0  0  0  0  0  0  0  0
   -3.8552    1.3361    0.5381 C   0  0  0  0  0  0  0  0  0  0  0  0
   -4.9026    0.4302    0.3534 C   0  0  0  0  0  0  0  0  0  0  0  0
   -4.5982   -0.9149    0.2216 C   0  0  0  0  0  0  0  0  0  0  0  0
   -5.5782   -1.8591    0.0584 O   0  0  0  0  0  0  0  0  0  0  0  0
   -3.2706   -1.3608    0.2633 C   0  0  0  0  0  0  0  0  0  0  0  0
   -3.0649   -2.7182    0.1728 O   0  0  0  0  0  0  0  0  0  0  0  0
   -2.1886   -0.4734    0.4348 C   0  0  0  0  0  0  0  0  0  0  0  0
   -0.8611   -0.9287    0.4864 N   0  0  0  0  0  0  0  0  0  0  0  0
   -0.3980   -1.6139   -0.7420 C   0  0  0  0  0  0  0  0  0  0  0  0
    0.9495   -2.3366   -0.4944 C   0  0  0  0  0  0  0  0  0  0  0  0
    2.0233   -1.4961    0.0865 N   0  0  0  0  0  0  0  0  0  0  0  0
    2.5383   -0.5359   -0.9105 C   0  0  0  0  0  0  0  0  0  0  0  0
    3.8024    0.2012   -0.4917 C   0  0  0  0  0  0  0  0  0  0  0  0
    3.7264    1.5037    0.0033 C   0  0  0  0  0  0  0  0  0  0  0  0
    4.8990    2.1528    0.3810 C   0  0  0  0  0  0  0  0  0  0  0  0
    6.1137    1.4911    0.2558 C   0  0  0  0  0  0  0  0  0  0  0  0
    6.1061    0.2024   -0.2485 C   0  0  0  0  0  0  0  0  0  0  0  0
    4.9864   -0.4500   -0.6279 N   0  0  0  0  0  0  0  0  0  0  0  0
    1.4876   -0.8545    1.3065 C   0  0  0  0  0  0  0  0  0  0  0  0
    0.1648   -0.0750    1.1130 C   0  0  0  0  0  0  0  0  0  0  0  0
   -2.5217    0.8846    0.5824 C   0  0  0  0  0  0  0  0  0  0  0  0
   -5.4160    4.0802    0.7585 H   0  0  0  0  0  0  0  0  0  0  0  0
   -5.9306    0.7752    0.3213 H   0  0  0  0  0  0  0  0  0  0  0  0
   -6.4422   -1.4114    0.0626 H   0  0  0  0  0  0  0  0  0  0  0  0
   -3.9610   -3.1028    0.1190 H   0  0  0  0  0  0  0  0  0  0  0  0
   -0.2842   -0.8771   -1.5473 H   0  0  0  0  0  0  0  0  0  0  0  0
   -1.1084   -2.3646   -1.0995 H   0  0  0  0  0  0  0  0  0  0  0  0
    0.7714   -3.1736    0.1941 H   0  0  0  0  0  0  0  0  0  0  0  0
    1.2956   -2.7958   -1.4287 H   0  0  0  0  0  0  0  0  0  0  0  0
    1.7777    0.1924   -1.2164 H   0  0  0  0  0  0  0  0  0  0  0  0
    2.8042   -1.0858   -1.8236 H   0  0  0  0  0  0  0  0  0  0  0  0
    2.7712    2.0089    0.0975 H   0  0  0  0  0  0  0  0  0  0  0  0
    4.8640    3.1655    0.7718 H   0  0  0  0  0  0  0  0  0  0  0  0
    7.0442    1.9662    0.5442 H   0  0  0  0  0  0  0  0  0  0  0  0
    7.0283   -0.3592   -0.3653 H   0  0  0  0  0  0  0  0  0  0  0  0
    1.3132   -1.6470    2.0473 H   0  0  0  0  0  0  0  0  0  0  0  0
    2.2369   -0.2002    1.7649 H   0  0  0  0  0  0  0  0  0  0  0  0
    0.3522    0.8137    0.4989 H   0  0  0  0  0  0  0  0  0  0  0  0
   -0.1770    0.2591    2.1004 H   0  0  0  0  0  0  0  0  0  0  0  0
   -1.7411    1.6284    0.7192 H   0  0  0  0  0  0  0  0  0  0  0  0
  1  2  2  0
  2  3  1  0
  2  4  1  0
  4  5  1  0
  5  6  2  0
  6  7  1  0
  6  8  1  0
  8  9  1  0
  8 10  2  0
 10 11  1  0
 11 12  1  0
 12 13  1  0
 13 14  1  0
 14 15  1  0
 15 16  1  0
 16 17  2  0
 17 18  1  0
 18 19  2  0
 19 20  1  0
 20 21  2  0
 14 22  1  0
 22 23  1  0
 10 24  1  0
 24  4  2  0
 23 11  1  0
 21 16  1  0
  3 25  1  0
  5 26  1  0
  7 27  1  0
  9 28  1  0
 12 29  1  0
 12 30  1  0
 13 31  1  0
 13 32  1  0
 15 33  1  0
 15 34  1  0
 17 35  1  0
 18 36  1  0
 19 37  1  0
 20 38  1  0
 22 39  1  0
 22 40  1  0
 23 41  1  0
 23 42  1  0
 24 43  1  0
M  END
$$$$
