
     RDKit          3D

 42 43  0  0  0  0  0  0  0  0999 V2000
   -4.8391    0.9796   -0.3945 C   0  0  0  0  0  0  0  0  0  0  0  0
   -4.3180   -0.2389    0.3682 N   0  0  0  0  0  0  0  0  0  0  0  0
   -4.5545   -1.4903   -0.4633 C   0  0  0  0  0  0  0  0  0  0  0  0
   -5.1107   -0.3591    1.6701 C   0  0  0  0  0  0  0  0  0  0  0  0
   -2.8163   -0.0773    0.7409 C   0  0  0  0  0  0  0  0  0  0  0  0
   -1.8644    0.1260   -0.4544 C   0  0  0  0  0  0  0  0  0  0  0  0
   -2.1300    1.3864   -1.0858 O   0  0  0  0  0  0  0  0  0  0  0  0
   -0.4033    0.1152    0.0215 C   0  0  0  0  0  0  0  0  0  0  0  0
    0.4069    0.2262   -1.1514 O   0  0  0  0  0  0  0  0  0  0  0  0
    1.7644    0.1913   -0.9742 C   0  0  0  0  0  0  0  0  0  0  0  0
    2.5043    0.2155   -2.1706 C   0  0  0  0  0  0  0  0  0  0  0  0
    3.9013    0.1917   -2.1592 C   0  0  0  0  0  0  0  0  0  0  0  0
    4.5425    0.1326   -0.9365 C   0  0  0  0  0  0  0  0  0  0  0  0
    3.8143    0.1113    0.2567 C   0  0  0  0  0  0  0  0  0  0  0  0
    2.4269    0.1473    0.2557 C   0  0  0  0  0  0  0  0  0  0  0  0
    4.7356    0.1018    1.4380 C   0  0  0  0  0  0  0  0  0  0  0  0
    6.0508   -0.3521    0.7888 C   0  0  0  0  0  0  0  0  0  0  0  0
    6.0150    0.1373   -0.6659 C   0  0  0  0  0  0  0  0  0  0  0  0
   -4.4489    0.9593   -1.4144 H   0  0  0  0  0  0  0  0  0  0  0  0
   -5.9313    0.9151   -0.4340 H   0  0  0  0  0  0  0  0  0  0  0  0
   -4.5345    1.8830    0.1411 H   0  0  0  0  0  0  0  0  0  0  0  0
   -5.6328   -1.6127   -0.6047 H   0  0  0  0  0  0  0  0  0  0  0  0
   -4.1407   -2.3470    0.0762 H   0  0  0  0  0  0  0  0  0  0  0  0
   -4.0668   -1.3729   -1.4338 H   0  0  0  0  0  0  0  0  0  0  0  0
   -4.7390   -1.2281    2.2211 H   0  0  0  0  0  0  0  0  0  0  0  0
   -4.9637    0.5566    2.2505 H   0  0  0  0  0  0  0  0  0  0  0  0
   -6.1691   -0.4893    1.4249 H   0  0  0  0  0  0  0  0  0  0  0  0
   -2.5435   -0.9787    1.3021 H   0  0  0  0  0  0  0  0  0  0  0  0
   -2.7670    0.7895    1.4113 H   0  0  0  0  0  0  0  0  0  0  0  0
   -2.0008   -0.6501   -1.2136 H   0  0  0  0  0  0  0  0  0  0  0  0
   -1.3733    1.5586   -1.6866 H   0  0  0  0  0  0  0  0  0  0  0  0
   -0.1876   -0.8236    0.5447 H   0  0  0  0  0  0  0  0  0  0  0  0
   -0.2211    0.9775    0.6741 H   0  0  0  0  0  0  0  0  0  0  0  0
    1.9849    0.2582   -3.1252 H   0  0  0  0  0  0  0  0  0  0  0  0
    4.4635    0.2215   -3.0874 H   0  0  0  0  0  0  0  0  0  0  0  0
    1.9062    0.1472    1.2046 H   0  0  0  0  0  0  0  0  0  0  0  0
    4.4124   -0.5963    2.2152 H   0  0  0  0  0  0  0  0  0  0  0  0
    4.8260    1.1111    1.8524 H   0  0  0  0  0  0  0  0  0  0  0  0
    6.9307    0.0093    1.3300 H   0  0  0  0  0  0  0  0  0  0  0  0
    6.0952   -1.4503    0.7972 H   0  0  0  0  0  0  0  0  0  0  0  0
    6.4104    1.1546   -0.7514 H   0  0  0  0  0  0  0  0  0  0  0  0
    6.5652   -0.5372   -1.3278 H   0  0  0  0  0  0  0  0  0  0  0  0
  1  2  1  0
  2  3  1  0
  2  4  1  0
  2  5  1  0
  5  6  1  0
  6  7  1  0
  6  8  1  0
  8  9  1  0
  9 10  1  0
 10 11  1  0
 11 12  2  0
 12 13  1  0
 13 14  2  0
 14 15  1  0
 14 16  1  0
 16 17  1  0
 17 18  1  0
 15 10  2  0
 18 13  1  0
  1 19  1  0
  1 20  1  0
  1 21  1  0
  3 22  1  0
  3 23  1  0
  3 24  1  0
  4 25  1  0
  4 26  1  0
  4 27  1  0
  5 28  1  0
  5 29  1  0
  6 30  1  0
  7 31  1  0
  8 32  1  0
  8 33  1  0
 11 34  1  0
 12 35  1  0
 15 36  1  0
 16 37  1  0
 16 38  1  0
 17 39  1  0
 17 40  1  0
 18 41  1  0
 18 42  1  0
M  CHG  1   2   1
M  END
$$$$
