
     RDKit          3D

 36 37  0  0  0  0  0  0  0  0999 V2000
    1.4810    3.1465   -1.1385 C   0  0  0  0  0  0  0  0  0  0  0  0
    0.3214    2.3091   -1.6585 C   0  0  0  0  0  0  0  0  0  0  0  0
   -0.0533    1.2344   -0.7341 N   0  0  0  0  0  0  0  0  0  0  0  0
   -1.1023    1.5493    0.1566 C   0  0  0  0  0  0  0  0  0  0  0  0
   -1.4493    2.7055    0.4062 O   0  0  0  0  0  0  0  0  0  0  0  0
   -1.9201    0.4628    0.7650 C   0  0  0  0  0  0  0  0  0  0  0  0
   -2.2753   -0.6809    0.0388 C   0  0  0  0  0  0  0  0  0  0  0  0
   -3.0482   -1.6754    0.6406 C   0  0  0  0  0  0  0  0  0  0  0  0
   -3.4824   -1.5217    1.9576 C   0  0  0  0  0  0  0  0  0  0  0  0
   -3.1542   -0.3709    2.6747 C   0  0  0  0  0  0  0  0  0  0  0  0
   -2.3798    0.6249    2.0782 C   0  0  0  0  0  0  0  0  0  0  0  0
    0.7582    0.0944   -0.5541 C   0  0  0  0  0  0  0  0  0  0  0  0
    0.8509   -0.5600    0.6586 N   0  0  0  0  0  0  0  0  0  0  0  0
    1.7265   -1.6109    0.5882 C   0  0  0  0  0  0  0  0  0  0  0  0
    1.9909   -2.4851    1.7557 C   0  0  0  0  0  0  0  0  0  0  0  0
    2.2353   -1.6247   -0.6878 C   0  0  0  0  0  0  0  0  0  0  0  0
    1.6437   -0.5492   -1.4159 C   0  0  0  0  0  0  0  0  0  0  0  0
    1.9417   -0.2642   -2.8453 C   0  0  0  0  0  0  0  0  0  0  0  0
    1.2395    3.5960   -0.1699 H   0  0  0  0  0  0  0  0  0  0  0  0
    1.7108    3.9528   -1.8418 H   0  0  0  0  0  0  0  0  0  0  0  0
    2.3840    2.5416   -1.0094 H   0  0  0  0  0  0  0  0  0  0  0  0
   -0.5426    2.9658   -1.8190 H   0  0  0  0  0  0  0  0  0  0  0  0
    0.5507    1.8908   -2.6398 H   0  0  0  0  0  0  0  0  0  0  0  0
   -1.9544   -0.8041   -0.9928 H   0  0  0  0  0  0  0  0  0  0  0  0
   -3.3168   -2.5672    0.0795 H   0  0  0  0  0  0  0  0  0  0  0  0
   -4.0895   -2.2955    2.4219 H   0  0  0  0  0  0  0  0  0  0  0  0
   -3.5096   -0.2450    3.6945 H   0  0  0  0  0  0  0  0  0  0  0  0
   -2.1393    1.5292    2.6337 H   0  0  0  0  0  0  0  0  0  0  0  0
    0.3717   -0.2837    1.5029 H   0  0  0  0  0  0  0  0  0  0  0  0
    2.4279   -1.9080    2.5768 H   0  0  0  0  0  0  0  0  0  0  0  0
    1.0628   -2.9449    2.1103 H   0  0  0  0  0  0  0  0  0  0  0  0
    2.6885   -3.2875    1.4954 H   0  0  0  0  0  0  0  0  0  0  0  0
    2.9612   -2.3341   -1.0664 H   0  0  0  0  0  0  0  0  0  0  0  0
    2.5091    0.6659   -2.9445 H   0  0  0  0  0  0  0  0  0  0  0  0
    2.5428   -1.0654   -3.2891 H   0  0  0  0  0  0  0  0  0  0  0  0
    1.0183   -0.1906   -3.4279 H   0  0  0  0  0  0  0  0  0  0  0  0
  1  2  1  0
  2  3  1  0
  3  4  1  0
  4  5  2  0
  4  6  1  0
  6  7  2  0
  7  8  1  0
  8  9  2  0
  9 10  1  0
 10 11  2  0
  3 12  1  0
 12 13  1  0
 13 14  1  0
 14 15  1  0
 14 16  2  0
 16 17  1  0
 17 18  1  0
 11  6  1  0
 17 12  2  0
  1 19  1  0
  1 20  1  0
  1 21  1  0
  2 22  1  0
  2 23  1  0
  7 24  1  0
  8 25  1  0
  9 26  1  0
 10 27  1  0
 11 28  1  0
 13 29  1  0
 15 30  1  0
 15 31  1  0
 15 32  1  0
 16 33  1  0
 18 34  1  0
 18 35  1  0
 18 36  1  0
M  END
$$$$
