
     RDKit          3D

 51 53  0  0  0  0  0  0  0  0999 V2000
    0.8900   -1.4979    3.5561 C   0  0  0  0  0  0  0  0  0  0  0  0
    0.3269   -0.7810    2.3823 C   0  0  0  0  0  0  0  0  0  0  0  0
   -0.9034   -1.1142    1.8825 N   0  0  0  0  0  0  0  0  0  0  0  0
   -1.2242   -0.3249    0.8127 C   0  0  0  0  0  0  0  0  0  0  0  0
   -2.4050   -0.5660    0.1818 N   0  0  0  0  0  0  0  0  0  0  0  0
   -2.4868   -0.5202   -1.2919 C   0  0  0  0  0  0  0  0  0  0  0  0
   -3.5684    0.4745   -1.7677 C   0  0  0  0  0  0  0  0  0  0  0  0
   -4.9332    0.1486   -1.2918 N   0  0  0  0  0  0  0  0  0  0  0  0
   -5.7745    1.3416   -1.2922 C   0  0  0  0  0  0  0  0  0  0  0  0
   -4.8970   -0.5021    0.0363 C   0  0  0  0  0  0  0  0  0  0  0  0
   -3.6471   -0.1918    0.8908 C   0  0  0  0  0  0  0  0  0  0  0  0
   -0.1840    0.5686    0.6228 C   0  0  0  0  0  0  0  0  0  0  0  0
   -0.1154    1.6592   -0.3868 C   0  0  0  0  0  0  0  0  0  0  0  0
    0.8293    0.2561    1.6059 C   0  0  0  0  0  0  0  0  0  0  0  0
    2.1553    0.9357    1.7991 C   0  0  0  0  0  0  0  0  0  0  0  0
    3.0455    0.5248    0.6476 C   0  0  0  0  0  0  0  0  0  0  0  0
    3.4820   -0.8181    0.5719 C   0  0  0  0  0  0  0  0  0  0  0  0
    4.3178   -1.2726   -0.4633 C   0  0  0  0  0  0  0  0  0  0  0  0
    4.7247   -2.6980   -0.4613 C   0  0  0  0  0  0  0  0  0  0  0  0
    4.4493   -3.5168    0.3963 O   0  0  0  0  0  0  0  0  0  0  0  0
    5.4635   -3.0334   -1.5333 O   0  0  0  0  0  0  0  0  0  0  0  0
    4.7459   -0.3831   -1.4475 C   0  0  0  0  0  0  0  0  0  0  0  0
    4.3357    0.9387   -1.3735 C   0  0  0  0  0  0  0  0  0  0  0  0
    4.7662    1.8135   -2.3343 O   0  0  0  0  0  0  0  0  0  0  0  0
    3.5021    1.3992   -0.3456 C   0  0  0  0  0  0  0  0  0  0  0  0
    3.1986    2.7345   -0.4090 O   0  0  0  0  0  0  0  0  0  0  0  0
    0.4617   -2.5009    3.6534 H   0  0  0  0  0  0  0  0  0  0  0  0
    1.9746   -1.6092    3.4700 H   0  0  0  0  0  0  0  0  0  0  0  0
    0.6739   -0.9427    4.4743 H   0  0  0  0  0  0  0  0  0  0  0  0
   -1.4903   -1.8665    2.2095 H   0  0  0  0  0  0  0  0  0  0  0  0
   -1.5256   -0.2670   -1.7524 H   0  0  0  0  0  0  0  0  0  0  0  0
   -2.7380   -1.5270   -1.6493 H   0  0  0  0  0  0  0  0  0  0  0  0
   -3.2785    1.4780   -1.4295 H   0  0  0  0  0  0  0  0  0  0  0  0
   -3.5788    0.4939   -2.8637 H   0  0  0  0  0  0  0  0  0  0  0  0
   -5.7993    1.7944   -2.2896 H   0  0  0  0  0  0  0  0  0  0  0  0
   -5.4251    2.0954   -0.5777 H   0  0  0  0  0  0  0  0  0  0  0  0
   -6.8085    1.0813   -1.0405 H   0  0  0  0  0  0  0  0  0  0  0  0
   -4.9249   -1.5854   -0.1405 H   0  0  0  0  0  0  0  0  0  0  0  0
   -5.8020   -0.2755    0.6137 H   0  0  0  0  0  0  0  0  0  0  0  0
   -3.7199   -0.7498    1.8320 H   0  0  0  0  0  0  0  0  0  0  0  0
   -3.6279    0.8778    1.1370 H   0  0  0  0  0  0  0  0  0  0  0  0
    0.4217    1.3235   -1.2787 H   0  0  0  0  0  0  0  0  0  0  0  0
   -1.1127    1.9909   -0.6864 H   0  0  0  0  0  0  0  0  0  0  0  0
    0.3936    2.5366    0.0207 H   0  0  0  0  0  0  0  0  0  0  0  0
    2.0094    2.0164    1.8698 H   0  0  0  0  0  0  0  0  0  0  0  0
    2.6282    0.6361    2.7419 H   0  0  0  0  0  0  0  0  0  0  0  0
    3.1569   -1.5302    1.3300 H   0  0  0  0  0  0  0  0  0  0  0  0
    5.6528   -3.9853   -1.4011 H   0  0  0  0  0  0  0  0  0  0  0  0
    5.3922   -0.7010   -2.2594 H   0  0  0  0  0  0  0  0  0  0  0  0
    4.3640    2.6681   -2.0800 H   0  0  0  0  0  0  0  0  0  0  0  0
    2.6086    2.9730    0.3214 H   0  0  0  0  0  0  0  0  0  0  0  0
  1  2  1  0
  2  3  1  0
  3  4  1  0
  4  5  1  0
  5  6  1  0
  6  7  1  0
  7  8  1  0
  8  9  1  0
  8 10  1  0
 10 11  1  0
  4 12  2  0
 12 13  1  0
 12 14  1  0
 14 15  1  0
 15 16  1  0
 16 17  1  0
 17 18  2  0
 18 19  1  0
 19 20  2  0
 19 21  1  0
 18 22  1  0
 22 23  2  0
 23 24  1  0
 23 25  1  0
 25 26  1  0
 14  2  2  0
 25 16  2  0
 11  5  1  0
  1 27  1  0
  1 28  1  0
  1 29  1  0
  3 30  1  0
  6 31  1  0
  6 32  1  0
  7 33  1  0
  7 34  1  0
  9 35  1  0
  9 36  1  0
  9 37  1  0
 10 38  1  0
 10 39  1  0
 11 40  1  0
 11 41  1  0
 13 42  1  0
 13 43  1  0
 13 44  1  0
 15 45  1  0
 15 46  1  0
 17 47  1  0
 21 48  1  0
 22 49  1  0
 24 50  1  0
 26 51  1  0
M  END
$$$$
