
     RDKit          3D

 28 30  0  0  0  0  0  0  0  0999 V2000
   -3.0555   -2.3276    0.3234 N   0  0  0  0  0  0  0  0  0  0  0  0
   -2.6398   -0.9955    0.3674 C   0  0  0  0  0  0  0  0  0  0  0  0
   -3.5710    0.0358    0.3277 C   0  0  0  0  0  0  0  0  0  0  0  0
   -3.1518    1.3681    0.2398 C   0  0  0  0  0  0  0  0  0  0  0  0
   -1.8104    1.7109    0.1508 C   0  0  0  0  0  0  0  0  0  0  0  0
   -1.4855    3.0053    0.0601 N   0  0  0  0  0  0  0  0  0  0  0  0
   -0.1843    3.2959   -0.0542 C   0  0  0  0  0  0  0  0  0  0  0  0
    0.8202    2.4172   -0.0785 N   0  0  0  0  0  0  0  0  0  0  0  0
    0.4742    1.1145    0.0313 C   0  0  0  0  0  0  0  0  0  0  0  0
    1.6249    0.1971    0.0305 C   0  0  0  0  0  0  0  0  0  0  0  0
    2.4080    0.0359   -1.1240 C   0  0  0  0  0  0  0  0  0  0  0  0
    3.4995   -0.8358   -1.1345 C   0  0  0  0  0  0  0  0  0  0  0  0
    3.8293   -1.5535    0.0131 C   0  0  0  0  0  0  0  0  0  0  0  0
    3.0735   -1.3963    1.1729 C   0  0  0  0  0  0  0  0  0  0  0  0
    1.9816   -0.5247    1.1825 C   0  0  0  0  0  0  0  0  0  0  0  0
   -0.8596    0.6833    0.1420 C   0  0  0  0  0  0  0  0  0  0  0  0
   -1.2921   -0.6688    0.2212 C   0  0  0  0  0  0  0  0  0  0  0  0
   -2.3635   -2.9952    0.6497 H   0  0  0  0  0  0  0  0  0  0  0  0
   -3.9721   -2.4937    0.7276 H   0  0  0  0  0  0  0  0  0  0  0  0
   -4.6356   -0.1803    0.3600 H   0  0  0  0  0  0  0  0  0  0  0  0
   -3.8988    2.1588    0.2241 H   0  0  0  0  0  0  0  0  0  0  0  0
    0.0787    4.3450   -0.1345 H   0  0  0  0  0  0  0  0  0  0  0  0
    2.1668    0.5990   -2.0238 H   0  0  0  0  0  0  0  0  0  0  0  0
    4.0942   -0.9481   -2.0373 H   0  0  0  0  0  0  0  0  0  0  0  0
    4.6817   -2.2279    0.0060 H   0  0  0  0  0  0  0  0  0  0  0  0
    3.3380   -1.9454    2.0728 H   0  0  0  0  0  0  0  0  0  0  0  0
    1.4111   -0.4014    2.1010 H   0  0  0  0  0  0  0  0  0  0  0  0
   -0.5615   -1.4724    0.1603 H   0  0  0  0  0  0  0  0  0  0  0  0
  1  2  1  0
  2  3  1  0
  3  4  2  0
  4  5  1  0
  5  6  2  0
  6  7  1  0
  7  8  2  0
  8  9  1  0
  9 10  1  0
 10 11  2  0
 11 12  1  0
 12 13  2  0
 13 14  1  0
 14 15  2  0
  9 16  2  0
 16 17  1  0
 17  2  2  0
 16  5  1  0
 15 10  1  0
  1 18  1  0
  1 19  1  0
  3 20  1  0
  4 21  1  0
  7 22  1  0
 11 23  1  0
 12 24  1  0
 13 25  1  0
 14 26  1  0
 15 27  1  0
 17 28  1  0
M  END
$$$$
