
     RDKit          3D

 49 52  0  0  0  0  0  0  0  0999 V2000
    6.6625    2.3492   -2.6003 C   0  0  0  0  0  0  0  0  0  0  0  0
    5.9704    1.6822   -1.4225 C   0  0  0  0  0  0  0  0  0  0  0  0
    6.0989    0.2359   -1.5277 N   0  0  0  0  0  0  0  0  0  0  0  0
    5.5456   -0.6056   -0.6220 C   0  0  0  0  0  0  0  0  0  0  0  0
    5.8787   -1.9054   -0.3126 C   0  0  0  0  0  0  0  0  0  0  0  0
    4.9901   -2.3511    0.6970 C   0  0  0  0  0  0  0  0  0  0  0  0
    4.1213   -1.3141    0.9736 C   0  0  0  0  0  0  0  0  0  0  0  0
    2.9913   -1.2114    1.9395 C   0  0  0  0  0  0  0  0  0  0  0  0
    1.7784   -0.7891    1.2256 N   0  0  0  0  0  0  0  0  0  0  0  0
    0.8587   -0.4912    2.0094 N   0  0  0  0  0  0  0  0  0  0  0  0
   -0.1784   -0.1338    1.2293 N   0  0  0  0  0  0  0  0  0  0  0  0
   -1.4723   -0.1276    1.7772 C   0  0  0  0  0  0  0  0  0  0  0  0
   -1.7100   -0.0966    3.1508 C   0  0  0  0  0  0  0  0  0  0  0  0
   -3.0158   -0.0171    3.6505 C   0  0  0  0  0  0  0  0  0  0  0  0
   -4.1198    0.0523    2.8139 C   0  0  0  0  0  0  0  0  0  0  0  0
   -5.3360    0.1366    3.3640 N   0  0  0  0  0  0  0  0  0  0  0  0
   -6.3754    0.2228    2.5256 C   0  0  0  0  0  0  0  0  0  0  0  0
   -6.3133    0.2258    1.1923 N   0  0  0  0  0  0  0  0  0  0  0  0
   -5.0773    0.1230    0.6540 C   0  0  0  0  0  0  0  0  0  0  0  0
   -5.0744    0.1003   -0.8173 C   0  0  0  0  0  0  0  0  0  0  0  0
   -5.4438    1.2405   -1.5491 C   0  0  0  0  0  0  0  0  0  0  0  0
   -5.4365    1.2295   -2.9460 C   0  0  0  0  0  0  0  0  0  0  0  0
   -5.0674    0.0744   -3.6319 C   0  0  0  0  0  0  0  0  0  0  0  0
   -4.7125   -1.0717   -2.9237 C   0  0  0  0  0  0  0  0  0  0  0  0
   -4.7198   -1.0601   -1.5267 C   0  0  0  0  0  0  0  0  0  0  0  0
   -3.9076    0.0428    1.4305 C   0  0  0  0  0  0  0  0  0  0  0  0
   -2.5789   -0.0269    0.9270 C   0  0  0  0  0  0  0  0  0  0  0  0
    4.4689   -0.2639    0.1542 N   0  0  0  0  0  0  0  0  0  0  0  0
    7.7305    2.1071   -2.6179 H   0  0  0  0  0  0  0  0  0  0  0  0
    6.2281    2.0180   -3.5496 H   0  0  0  0  0  0  0  0  0  0  0  0
    6.5600    3.4369   -2.5367 H   0  0  0  0  0  0  0  0  0  0  0  0
    4.9147    1.9763   -1.4247 H   0  0  0  0  0  0  0  0  0  0  0  0
    6.4237    2.0324   -0.4882 H   0  0  0  0  0  0  0  0  0  0  0  0
    6.9749   -0.0675   -1.9515 H   0  0  0  0  0  0  0  0  0  0  0  0
    6.6789   -2.4760   -0.7637 H   0  0  0  0  0  0  0  0  0  0  0  0
    4.9842   -3.3269    1.1654 H   0  0  0  0  0  0  0  0  0  0  0  0
    3.2520   -0.4882    2.7227 H   0  0  0  0  0  0  0  0  0  0  0  0
    2.8174   -2.1822    2.4189 H   0  0  0  0  0  0  0  0  0  0  0  0
   -0.1108   -0.4546    0.2684 H   0  0  0  0  0  0  0  0  0  0  0  0
   -0.8831   -0.1288    3.8561 H   0  0  0  0  0  0  0  0  0  0  0  0
   -3.1697    0.0003    4.7274 H   0  0  0  0  0  0  0  0  0  0  0  0
   -7.3611    0.2966    2.9720 H   0  0  0  0  0  0  0  0  0  0  0  0
   -5.7449    2.1457   -1.0249 H   0  0  0  0  0  0  0  0  0  0  0  0
   -5.7258    2.1210   -3.4963 H   0  0  0  0  0  0  0  0  0  0  0  0
   -5.0670    0.0645   -4.7189 H   0  0  0  0  0  0  0  0  0  0  0  0
   -4.4381   -1.9777   -3.4581 H   0  0  0  0  0  0  0  0  0  0  0  0
   -4.4558   -1.9688   -0.9891 H   0  0  0  0  0  0  0  0  0  0  0  0
   -2.4126    0.0052   -0.1480 H   0  0  0  0  0  0  0  0  0  0  0  0
    3.9789    0.6172    0.1107 H   0  0  0  0  0  0  0  0  0  0  0  0
  1  2  1  0
  2  3  1  0
  3  4  1  0
  4  5  2  0
  5  6  1  0
  6  7  2  0
  7  8  1  0
  8  9  1  0
  9 10  2  0
 10 11  1  0
 11 12  1  0
 12 13  1  0
 13 14  2  0
 14 15  1  0
 15 16  2  0
 16 17  1  0
 17 18  2  0
 18 19  1  0
 19 20  1  0
 20 21  2  0
 21 22  1  0
 22 23  2  0
 23 24  1  0
 24 25  2  0
 19 26  2  0
 26 27  1  0
  7 28  1  0
 28  4  1  0
 27 12  2  0
 26 15  1  0
 25 20  1  0
  1 29  1  0
  1 30  1  0
  1 31  1  0
  2 32  1  0
  2 33  1  0
  3 34  1  0
  5 35  1  0
  6 36  1  0
  8 37  1  0
  8 38  1  0
 11 39  1  0
 13 40  1  0
 14 41  1  0
 17 42  1  0
 21 43  1  0
 22 44  1  0
 23 45  1  0
 24 46  1  0
 25 47  1  0
 27 48  1  0
 28 49  1  0
M  END
$$$$
