
     RDKit          3D

 39 41  0  0  0  0  0  0  0  0999 V2000
   -3.9413   -2.9728    0.4802 C   0  0  0  0  0  0  0  0  0  0  0  0
   -2.9180   -1.9685    0.8556 C   0  0  0  0  0  0  0  0  0  0  0  0
   -2.6754   -1.3211    2.0468 C   0  0  0  0  0  0  0  0  0  0  0  0
   -1.5547   -0.4579    1.8642 C   0  0  0  0  0  0  0  0  0  0  0  0
   -0.9116    0.3373    2.9467 C   0  0  0  0  0  0  0  0  0  0  0  0
   -1.1785   -0.5615    0.5283 C   0  0  0  0  0  0  0  0  0  0  0  0
   -0.1434    0.0548   -0.1955 N   0  0  0  0  0  0  0  0  0  0  0  0
    0.3926   -0.6886   -1.2641 C   0  0  0  0  0  0  0  0  0  0  0  0
   -0.2948   -1.2320   -2.1355 O   0  0  0  0  0  0  0  0  0  0  0  0
    1.8726   -0.9466   -1.2391 C   0  0  0  0  0  0  0  0  0  0  0  0
    2.4728   -1.5533   -2.3388 C   0  0  0  0  0  0  0  0  0  0  0  0
    3.8417   -1.8032   -2.2947 C   0  0  0  0  0  0  0  0  0  0  0  0
    4.5628   -1.4482   -1.1599 C   0  0  0  0  0  0  0  0  0  0  0  0
    3.8847   -0.8534   -0.1083 C   0  0  0  0  0  0  0  0  0  0  0  0
    2.5605   -0.5920   -0.1212 N   0  0  0  0  0  0  0  0  0  0  0  0
   -0.0641    1.5022   -0.1999 C   0  0  0  0  0  0  0  0  0  0  0  0
    1.0106    2.1710   -0.8145 C   0  0  0  0  0  0  0  0  0  0  0  0
    1.0925    3.5699   -0.8466 C   0  0  0  0  0  0  0  0  0  0  0  0
    0.0867    4.3409   -0.2783 C   0  0  0  0  0  0  0  0  0  0  0  0
   -1.0011    3.7068    0.3066 C   0  0  0  0  0  0  0  0  0  0  0  0
   -2.2694    4.6517    0.9880 Cl  0  0  0  0  0  0  0  0  0  0  0  0
   -1.0825    2.3113    0.3378 C   0  0  0  0  0  0  0  0  0  0  0  0
   -1.9730   -1.5360   -0.0372 N   0  0  0  0  0  0  0  0  0  0  0  0
   -3.4667   -3.9165    0.1929 H   0  0  0  0  0  0  0  0  0  0  0  0
   -4.5409   -2.6151   -0.3630 H   0  0  0  0  0  0  0  0  0  0  0  0
   -4.6186   -3.1742    1.3161 H   0  0  0  0  0  0  0  0  0  0  0  0
   -3.2267   -1.4714    2.9669 H   0  0  0  0  0  0  0  0  0  0  0  0
   -0.8742   -0.2433    3.8747 H   0  0  0  0  0  0  0  0  0  0  0  0
   -1.4810    1.2509    3.1430 H   0  0  0  0  0  0  0  0  0  0  0  0
    0.1165    0.6112    2.6912 H   0  0  0  0  0  0  0  0  0  0  0  0
    1.8885   -1.8302   -3.2108 H   0  0  0  0  0  0  0  0  0  0  0  0
    4.3394   -2.2768   -3.1368 H   0  0  0  0  0  0  0  0  0  0  0  0
    5.6293   -1.6353   -1.0940 H   0  0  0  0  0  0  0  0  0  0  0  0
    4.4053   -0.5636    0.8007 H   0  0  0  0  0  0  0  0  0  0  0  0
    1.8339    1.6320   -1.2694 H   0  0  0  0  0  0  0  0  0  0  0  0
    1.9472    4.0506   -1.3164 H   0  0  0  0  0  0  0  0  0  0  0  0
    0.1502    5.4249   -0.3037 H   0  0  0  0  0  0  0  0  0  0  0  0
   -1.9831    1.8733    0.7571 H   0  0  0  0  0  0  0  0  0  0  0  0
   -1.8886   -1.8273   -1.0051 H   0  0  0  0  0  0  0  0  0  0  0  0
  1  2  1  0
  2  3  2  0
  3  4  1  0
  4  5  1  0
  4  6  2  0
  6  7  1  0
  7  8  1  0
  8  9  2  0
  8 10  1  0
 10 11  2  0
 11 12  1  0
 12 13  2  0
 13 14  1  0
 14 15  2  0
  7 16  1  0
 16 17  2  0
 17 18  1  0
 18 19  2  0
 19 20  1  0
 20 21  1  0
 20 22  2  0
  6 23  1  0
 23  2  1  0
 15 10  1  0
 22 16  1  0
  1 24  1  0
  1 25  1  0
  1 26  1  0
  3 27  1  0
  5 28  1  0
  5 29  1  0
  5 30  1  0
 11 31  1  0
 12 32  1  0
 13 33  1  0
 14 34  1  0
 17 35  1  0
 18 36  1  0
 19 37  1  0
 22 38  1  0
 23 39  1  0
M  END
$$$$
