
     RDKit          3D

 33 33  0  0  0  0  0  0  0  0999 V2000
    1.0734   -3.1413   -0.0910 N   0  0  0  0  0  0  0  0  0  0  0  0
    0.6653   -2.0575   -0.1660 C   0  0  0  0  0  0  0  0  0  0  0  0
    0.1059   -0.7447   -0.2777 C   0  0  0  0  0  0  0  0  0  0  0  0
    0.8289    0.3806   -0.1123 C   0  0  0  0  0  0  0  0  0  0  0  0
    2.2552    0.4371    0.2246 C   0  0  0  0  0  0  0  0  0  0  0  0
    3.1531    1.0079   -0.6860 C   0  0  0  0  0  0  0  0  0  0  0  0
    4.5147    1.0865   -0.3810 C   0  0  0  0  0  0  0  0  0  0  0  0
    4.9710    0.5996    0.8395 C   0  0  0  0  0  0  0  0  0  0  0  0
    6.2898    0.6568    1.1791 O   0  0  0  0  0  0  0  0  0  0  0  0
    4.0901    0.0407    1.7575 C   0  0  0  0  0  0  0  0  0  0  0  0
    2.7297   -0.0380    1.4535 C   0  0  0  0  0  0  0  0  0  0  0  0
   -1.3258   -0.6589   -0.6013 C   0  0  0  0  0  0  0  0  0  0  0  0
   -1.6390   -0.6419   -1.9602 N   0  0  0  0  0  0  0  0  0  0  0  0
   -2.2581   -0.5596    0.3837 C   0  0  0  0  0  0  0  0  0  0  0  0
   -1.9054   -0.5787    1.7726 C   0  0  0  0  0  0  0  0  0  0  0  0
   -1.6352   -0.5980    2.9002 N   0  0  0  0  0  0  0  0  0  0  0  0
   -3.6929   -0.3772    0.0813 C   0  0  0  0  0  0  0  0  0  0  0  0
   -4.4352   -1.5555    0.0200 N   0  0  0  0  0  0  0  0  0  0  0  0
   -4.1825    0.8675   -0.1682 C   0  0  0  0  0  0  0  0  0  0  0  0
   -5.5541    1.0564   -0.4958 C   0  0  0  0  0  0  0  0  0  0  0  0
   -6.6805    1.1755   -0.7480 N   0  0  0  0  0  0  0  0  0  0  0  0
   -3.3561    2.0289   -0.1207 C   0  0  0  0  0  0  0  0  0  0  0  0
   -2.6596    2.9554   -0.0663 N   0  0  0  0  0  0  0  0  0  0  0  0
    0.3616    1.3566   -0.2431 H   0  0  0  0  0  0  0  0  0  0  0  0
    2.8014    1.3934   -1.6405 H   0  0  0  0  0  0  0  0  0  0  0  0
    5.1960    1.5286   -1.1009 H   0  0  0  0  0  0  0  0  0  0  0  0
    6.7837    1.0581    0.4457 H   0  0  0  0  0  0  0  0  0  0  0  0
    4.4597   -0.3312    2.7091 H   0  0  0  0  0  0  0  0  0  0  0  0
    2.0516   -0.4668    2.1885 H   0  0  0  0  0  0  0  0  0  0  0  0
   -0.9178   -1.0546   -2.5530 H   0  0  0  0  0  0  0  0  0  0  0  0
   -2.5510   -1.0522   -2.1692 H   0  0  0  0  0  0  0  0  0  0  0  0
   -5.4487   -1.4557    0.1016 H   0  0  0  0  0  0  0  0  0  0  0  0
   -4.0892   -2.3176    0.6055 H   0  0  0  0  0  0  0  0  0  0  0  0
  1  2  3  0
  2  3  1  0
  3  4  2  3
  4  5  1  0
  5  6  1  0
  6  7  2  0
  7  8  1  0
  8  9  1  0
  8 10  2  0
 10 11  1  0
  3 12  1  0
 12 13  1  0
 12 14  2  3
 14 15  1  0
 15 16  3  0
 14 17  1  0
 17 18  1  0
 17 19  2  3
 19 20  1  0
 20 21  3  0
 19 22  1  0
 22 23  3  0
 11  5  2  0
  4 24  1  0
  6 25  1  0
  7 26  1  0
  9 27  1  0
 10 28  1  0
 11 29  1  0
 13 30  1  0
 13 31  1  0
 18 32  1  0
 18 33  1  0
M  END
$$$$
