
     RDKit          3D

 32 32  0  0  0  0  0  0  0  0999 V2000
   -0.7026    2.8244    0.3841 N   0  0  0  0  0  0  0  0  0  0  0  0
   -0.4559    1.6912    0.3412 C   0  0  0  0  0  0  0  0  0  0  0  0
   -0.1600    0.2961    0.2248 C   0  0  0  0  0  0  0  0  0  0  0  0
   -1.1125   -0.6404    0.0338 C   0  0  0  0  0  0  0  0  0  0  0  0
   -2.5584   -0.4046   -0.0801 C   0  0  0  0  0  0  0  0  0  0  0  0
   -3.0942    0.4197   -1.0804 C   0  0  0  0  0  0  0  0  0  0  0  0
   -4.4756    0.6065   -1.1757 C   0  0  0  0  0  0  0  0  0  0  0  0
   -5.3233   -0.0379   -0.2804 C   0  0  0  0  0  0  0  0  0  0  0  0
   -6.6458    0.1519   -0.3941 F   0  0  0  0  0  0  0  0  0  0  0  0
   -4.8047   -0.8704    0.7079 C   0  0  0  0  0  0  0  0  0  0  0  0
   -5.8483   -1.6815    1.8110 Cl  0  0  0  0  0  0  0  0  0  0  0  0
   -3.4239   -1.0585    0.8079 C   0  0  0  0  0  0  0  0  0  0  0  0
    1.2508   -0.1048    0.3235 C   0  0  0  0  0  0  0  0  0  0  0  0
    1.6328   -0.6610    1.5417 N   0  0  0  0  0  0  0  0  0  0  0  0
    2.0900    0.0488   -0.7416 C   0  0  0  0  0  0  0  0  0  0  0  0
    1.7349    0.5794   -1.9720 N   0  0  0  0  0  0  0  0  0  0  0  0
    3.5001   -0.3517   -0.6040 C   0  0  0  0  0  0  0  0  0  0  0  0
    3.7718   -1.7369   -0.8364 C   0  0  0  0  0  0  0  0  0  0  0  0
    3.9821   -2.8667   -0.9890 N   0  0  0  0  0  0  0  0  0  0  0  0
    4.4763    0.5048   -0.2308 C   0  0  0  0  0  0  0  0  0  0  0  0
    5.8237    0.0752   -0.0683 C   0  0  0  0  0  0  0  0  0  0  0  0
    6.9191   -0.2821    0.0601 N   0  0  0  0  0  0  0  0  0  0  0  0
    4.1989    1.8829   -0.0066 C   0  0  0  0  0  0  0  0  0  0  0  0
    3.9687    3.0108    0.1357 N   0  0  0  0  0  0  0  0  0  0  0  0
   -0.8272   -1.6902   -0.0340 H   0  0  0  0  0  0  0  0  0  0  0  0
   -2.4486    0.9228   -1.7980 H   0  0  0  0  0  0  0  0  0  0  0  0
   -4.8961    1.2486   -1.9440 H   0  0  0  0  0  0  0  0  0  0  0  0
   -3.0286   -1.7128    1.5820 H   0  0  0  0  0  0  0  0  0  0  0  0
    2.2345   -1.4788    1.4587 H   0  0  0  0  0  0  0  0  0  0  0  0
    0.8456   -0.8763    2.1549 H   0  0  0  0  0  0  0  0  0  0  0  0
    2.4813    1.0353   -2.4941 H   0  0  0  0  0  0  0  0  0  0  0  0
    0.8950    1.1560   -1.9734 H   0  0  0  0  0  0  0  0  0  0  0  0
  1  2  3  0
  2  3  1  0
  3  4  2  3
  4  5  1  0
  5  6  1  0
  6  7  2  0
  7  8  1  0
  8  9  1  0
  8 10  2  0
 10 11  1  0
 10 12  1  0
  3 13  1  0
 13 14  1  0
 13 15  2  3
 15 16  1  0
 15 17  1  0
 17 18  1  0
 18 19  3  0
 17 20  2  3
 20 21  1  0
 21 22  3  0
 20 23  1  0
 23 24  3  0
 12  5  2  0
  4 25  1  0
  6 26  1  0
  7 27  1  0
 12 28  1  0
 14 29  1  0
 14 30  1  0
 16 31  1  0
 16 32  1  0
M  END
$$$$
