
     RDKit          3D

 39 41  0  0  0  0  0  0  0  0999 V2000
   -3.6193   -3.7519    0.1643 C   0  0  0  0  0  0  0  0  0  0  0  0
   -3.0293   -2.4149    0.4087 C   0  0  0  0  0  0  0  0  0  0  0  0
   -3.4889   -1.3352    1.1226 C   0  0  0  0  0  0  0  0  0  0  0  0
   -2.5314   -0.2794    1.0086 C   0  0  0  0  0  0  0  0  0  0  0  0
   -2.7543    1.0749    1.5882 C   0  0  0  0  0  0  0  0  0  0  0  0
   -1.4610   -0.7734    0.2586 C   0  0  0  0  0  0  0  0  0  0  0  0
   -0.2170   -0.2419   -0.1504 N   0  0  0  0  0  0  0  0  0  0  0  0
    0.5028   -0.8845   -1.1881 C   0  0  0  0  0  0  0  0  0  0  0  0
    0.0409   -1.7816   -1.9053 O   0  0  0  0  0  0  0  0  0  0  0  0
    1.9321   -0.5101   -1.4385 C   0  0  0  0  0  0  0  0  0  0  0  0
    2.4071   -0.5146   -2.7468 C   0  0  0  0  0  0  0  0  0  0  0  0
    3.7447   -0.1986   -2.9668 C   0  0  0  0  0  0  0  0  0  0  0  0
    4.5616    0.0972   -1.8805 C   0  0  0  0  0  0  0  0  0  0  0  0
    4.0092    0.0581   -0.6102 C   0  0  0  0  0  0  0  0  0  0  0  0
    2.7180   -0.2464   -0.3625 N   0  0  0  0  0  0  0  0  0  0  0  0
    0.2136    0.9751    0.4438 C   0  0  0  0  0  0  0  0  0  0  0  0
    0.4894    2.0953   -0.3553 C   0  0  0  0  0  0  0  0  0  0  0  0
    0.9428    3.2822    0.2242 C   0  0  0  0  0  0  0  0  0  0  0  0
    1.1340    3.3552    1.6036 C   0  0  0  0  0  0  0  0  0  0  0  0
    0.8716    2.2398    2.3979 C   0  0  0  0  0  0  0  0  0  0  0  0
    1.1394    2.3389    4.2669 Br  0  0  0  0  0  0  0  0  0  0  0  0
    0.4147    1.0525    1.8283 C   0  0  0  0  0  0  0  0  0  0  0  0
   -1.8288   -2.0479   -0.1332 N   0  0  0  0  0  0  0  0  0  0  0  0
   -2.9457   -4.5400    0.5158 H   0  0  0  0  0  0  0  0  0  0  0  0
   -3.8018   -3.9026   -0.9045 H   0  0  0  0  0  0  0  0  0  0  0  0
   -4.5730   -3.8621    0.6901 H   0  0  0  0  0  0  0  0  0  0  0  0
   -4.4325   -1.2899    1.6526 H   0  0  0  0  0  0  0  0  0  0  0  0
   -2.3918    1.8632    0.9231 H   0  0  0  0  0  0  0  0  0  0  0  0
   -3.8247    1.2571    1.7379 H   0  0  0  0  0  0  0  0  0  0  0  0
   -2.2704    1.1645    2.5646 H   0  0  0  0  0  0  0  0  0  0  0  0
    1.7511   -0.7625   -3.5753 H   0  0  0  0  0  0  0  0  0  0  0  0
    4.1473   -0.1901   -3.9760 H   0  0  0  0  0  0  0  0  0  0  0  0
    5.6085    0.3450   -2.0195 H   0  0  0  0  0  0  0  0  0  0  0  0
    4.6103    0.2751    0.2687 H   0  0  0  0  0  0  0  0  0  0  0  0
    0.3304    2.0582   -1.4298 H   0  0  0  0  0  0  0  0  0  0  0  0
    1.1458    4.1485   -0.4000 H   0  0  0  0  0  0  0  0  0  0  0  0
    1.4888    4.2812    2.0483 H   0  0  0  0  0  0  0  0  0  0  0  0
    0.2323    0.1793    2.4494 H   0  0  0  0  0  0  0  0  0  0  0  0
   -1.2662   -2.6136   -0.7589 H   0  0  0  0  0  0  0  0  0  0  0  0
  1  2  1  0
  2  3  2  0
  3  4  1  0
  4  5  1  0
  4  6  2  0
  6  7  1  0
  7  8  1  0
  8  9  2  0
  8 10  1  0
 10 11  2  0
 11 12  1  0
 12 13  2  0
 13 14  1  0
 14 15  2  0
  7 16  1  0
 16 17  2  0
 17 18  1  0
 18 19  2  0
 19 20  1  0
 20 21  1  0
 20 22  2  0
  6 23  1  0
 23  2  1  0
 15 10  1  0
 22 16  1  0
  1 24  1  0
  1 25  1  0
  1 26  1  0
  3 27  1  0
  5 28  1  0
  5 29  1  0
  5 30  1  0
 11 31  1  0
 12 32  1  0
 13 33  1  0
 14 34  1  0
 17 35  1  0
 18 36  1  0
 19 37  1  0
 22 38  1  0
 23 39  1  0
M  END
$$$$
