
     RDKit          3D

 54 57  0  0  0  0  0  0  0  0999 V2000
   -5.3197    3.4124   -0.3892 C   0  0  0  0  0  0  0  0  0  0  0  0
   -5.0177    2.6755    0.9066 C   0  0  0  0  0  0  0  0  0  0  0  0
   -4.3843    1.3761    0.6470 N   0  0  0  0  0  0  0  0  0  0  0  0
   -2.9164    1.3757    0.5012 C   0  0  0  0  0  0  0  0  0  0  0  0
   -2.4755    1.1102   -0.9438 C   0  0  0  0  0  0  0  0  0  0  0  0
   -1.0033    1.1075   -1.0180 N   0  0  0  0  0  0  0  0  0  0  0  0
   -0.5331   -0.0233   -0.7946 N   0  0  0  0  0  0  0  0  0  0  0  0
    0.8007    0.1047   -0.8982 N   0  0  0  0  0  0  0  0  0  0  0  0
    1.6273   -0.8567   -0.2945 C   0  0  0  0  0  0  0  0  0  0  0  0
    1.1603   -2.1069    0.1094 C   0  0  0  0  0  0  0  0  0  0  0  0
    2.0326   -3.0545    0.6585 C   0  0  0  0  0  0  0  0  0  0  0  0
    3.3902   -2.8088    0.7988 C   0  0  0  0  0  0  0  0  0  0  0  0
    4.1590   -3.7576    1.3439 N   0  0  0  0  0  0  0  0  0  0  0  0
    5.4634   -3.4867    1.4646 C   0  0  0  0  0  0  0  0  0  0  0  0
    6.0711   -2.3607    1.0841 N   0  0  0  0  0  0  0  0  0  0  0  0
    5.2819   -1.4197    0.5193 C   0  0  0  0  0  0  0  0  0  0  0  0
    6.0184   -0.2186    0.0936 C   0  0  0  0  0  0  0  0  0  0  0  0
    6.6430    0.6084    1.0434 C   0  0  0  0  0  0  0  0  0  0  0  0
    7.3484    1.7493    0.6526 C   0  0  0  0  0  0  0  0  0  0  0  0
    7.4462    2.0768   -0.6982 C   0  0  0  0  0  0  0  0  0  0  0  0
    6.8449    1.2580   -1.6511 C   0  0  0  0  0  0  0  0  0  0  0  0
    6.9694    1.6584   -3.3200 Cl  0  0  0  0  0  0  0  0  0  0  0  0
    6.1402    0.1174   -1.2652 C   0  0  0  0  0  0  0  0  0  0  0  0
    3.8935   -1.5789    0.3584 C   0  0  0  0  0  0  0  0  0  0  0  0
    3.0013   -0.6140   -0.1875 C   0  0  0  0  0  0  0  0  0  0  0  0
   -5.1274    0.2006    0.5732 C   0  0  0  0  0  0  0  0  0  0  0  0
   -6.5268    0.2076    0.4220 C   0  0  0  0  0  0  0  0  0  0  0  0
   -7.2833   -0.9704    0.3427 C   0  0  0  0  0  0  0  0  0  0  0  0
   -6.6567   -2.2068    0.4134 C   0  0  0  0  0  0  0  0  0  0  0  0
   -5.2779   -2.2505    0.5626 C   0  0  0  0  0  0  0  0  0  0  0  0
   -4.4006   -3.9245    0.6618 Br  0  0  0  0  0  0  0  0  0  0  0  0
   -4.5277   -1.0704    0.6411 C   0  0  0  0  0  0  0  0  0  0  0  0
   -5.8268    4.3584   -0.1755 H   0  0  0  0  0  0  0  0  0  0  0  0
   -4.3992    3.6423   -0.9350 H   0  0  0  0  0  0  0  0  0  0  0  0
   -5.9617    2.8234   -1.0512 H   0  0  0  0  0  0  0  0  0  0  0  0
   -5.9263    2.5714    1.5109 H   0  0  0  0  0  0  0  0  0  0  0  0
   -4.3509    3.2971    1.5175 H   0  0  0  0  0  0  0  0  0  0  0  0
   -2.4575    0.6649    1.1985 H   0  0  0  0  0  0  0  0  0  0  0  0
   -2.5096    2.3501    0.8033 H   0  0  0  0  0  0  0  0  0  0  0  0
   -2.8477    1.9056   -1.5984 H   0  0  0  0  0  0  0  0  0  0  0  0
   -2.8870    0.1717   -1.3339 H   0  0  0  0  0  0  0  0  0  0  0  0
    1.1426    1.0593   -0.8882 H   0  0  0  0  0  0  0  0  0  0  0  0
    0.1086   -2.3649    0.0076 H   0  0  0  0  0  0  0  0  0  0  0  0
    1.6346   -4.0147    0.9808 H   0  0  0  0  0  0  0  0  0  0  0  0
    6.0848   -4.2546    1.9124 H   0  0  0  0  0  0  0  0  0  0  0  0
    6.5847    0.3551    2.1013 H   0  0  0  0  0  0  0  0  0  0  0  0
    7.8259    2.3758    1.4021 H   0  0  0  0  0  0  0  0  0  0  0  0
    7.9979    2.9628   -1.0010 H   0  0  0  0  0  0  0  0  0  0  0  0
    5.6916   -0.5198   -2.0246 H   0  0  0  0  0  0  0  0  0  0  0  0
    3.3893    0.3441   -0.5260 H   0  0  0  0  0  0  0  0  0  0  0  0
   -7.0741    1.1423    0.3409 H   0  0  0  0  0  0  0  0  0  0  0  0
   -8.3619   -0.9121    0.2212 H   0  0  0  0  0  0  0  0  0  0  0  0
   -7.2438   -3.1181    0.3512 H   0  0  0  0  0  0  0  0  0  0  0  0
   -3.4549   -1.1698    0.7700 H   0  0  0  0  0  0  0  0  0  0  0  0
  1  2  1  0
  2  3  1  0
  3  4  1  0
  4  5  1  0
  5  6  1  0
  6  7  2  0
  7  8  1  0
  8  9  1  0
  9 10  1  0
 10 11  2  0
 11 12  1  0
 12 13  2  0
 13 14  1  0
 14 15  2  0
 15 16  1  0
 16 17  1  0
 17 18  2  0
 18 19  1  0
 19 20  2  0
 20 21  1  0
 21 22  1  0
 21 23  2  0
 16 24  2  0
 24 25  1  0
  3 26  1  0
 26 27  2  0
 27 28  1  0
 28 29  2  0
 29 30  1  0
 30 31  1  0
 30 32  2  0
 25  9  2  0
 32 26  1  0
 24 12  1  0
 23 17  1  0
  1 33  1  0
  1 34  1  0
  1 35  1  0
  2 36  1  0
  2 37  1  0
  4 38  1  0
  4 39  1  0
  5 40  1  0
  5 41  1  0
  8 42  1  0
 10 43  1  0
 11 44  1  0
 14 45  1  0
 18 46  1  0
 19 47  1  0
 20 48  1  0
 23 49  1  0
 25 50  1  0
 27 51  1  0
 28 52  1  0
 29 53  1  0
 32 54  1  0
M  END
$$$$
