
     RDKit          3D

 32 33  0  0  0  0  0  0  0  0999 V2000
    3.2578    2.7072   -1.5859 N   0  0  0  0  0  0  0  0  0  0  0  0
    3.7660    1.8626   -0.9734 C   0  0  0  0  0  0  0  0  0  0  0  0
    4.4032    0.8481   -0.2008 C   0  0  0  0  0  0  0  0  0  0  0  0
    5.7746    1.0458    0.1261 C   0  0  0  0  0  0  0  0  0  0  0  0
    6.8913    1.2022    0.3967 N   0  0  0  0  0  0  0  0  0  0  0  0
    3.7300   -0.2492    0.2105 C   0  0  0  0  0  0  0  0  0  0  0  0
    4.3586   -1.2606    1.0026 C   0  0  0  0  0  0  0  0  0  0  0  0
    4.8684   -2.0806    1.6446 N   0  0  0  0  0  0  0  0  0  0  0  0
    2.3202   -0.4733   -0.1202 C   0  0  0  0  0  0  0  0  0  0  0  0
    2.0567   -0.9761   -1.3809 N   0  0  0  0  0  0  0  0  0  0  0  0
    1.3793   -0.1323    0.7836 C   0  0  0  0  0  0  0  0  0  0  0  0
   -0.0686   -0.2445    0.5688 C   0  0  0  0  0  0  0  0  0  0  0  0
   -0.8155   -1.1372    1.3614 C   0  0  0  0  0  0  0  0  0  0  0  0
   -2.1958   -1.2706    1.1835 C   0  0  0  0  0  0  0  0  0  0  0  0
   -2.8128   -0.4901    0.2217 C   0  0  0  0  0  0  0  0  0  0  0  0
   -2.0778    0.4040   -0.5630 C   0  0  0  0  0  0  0  0  0  0  0  0
   -0.7082    0.5360   -0.4044 C   0  0  0  0  0  0  0  0  0  0  0  0
   -2.9616    1.0966   -1.5527 C   0  0  0  0  0  0  0  0  0  0  0  0
   -4.3474    0.8464   -0.9403 C   0  0  0  0  0  0  0  0  0  0  0  0
   -4.2571   -0.4800   -0.1718 C   0  0  0  0  0  0  0  0  0  0  0  0
    1.0839   -1.2691   -1.4925 H   0  0  0  0  0  0  0  0  0  0  0  0
    2.6811   -1.7271   -1.6707 H   0  0  0  0  0  0  0  0  0  0  0  0
    1.6489    0.2580    1.7636 H   0  0  0  0  0  0  0  0  0  0  0  0
   -0.3214   -1.7433    2.1180 H   0  0  0  0  0  0  0  0  0  0  0  0
   -2.7654   -1.9697    1.7878 H   0  0  0  0  0  0  0  0  0  0  0  0
   -0.1471    1.2314   -1.0236 H   0  0  0  0  0  0  0  0  0  0  0  0
   -2.8711    0.6219   -2.5350 H   0  0  0  0  0  0  0  0  0  0  0  0
   -2.7468    2.1660   -1.6305 H   0  0  0  0  0  0  0  0  0  0  0  0
   -4.5788    1.6556   -0.2335 H   0  0  0  0  0  0  0  0  0  0  0  0
   -5.1420    0.8402   -1.6929 H   0  0  0  0  0  0  0  0  0  0  0  0
   -4.9272   -0.4869    0.6923 H   0  0  0  0  0  0  0  0  0  0  0  0
   -4.4755   -1.3315   -0.8244 H   0  0  0  0  0  0  0  0  0  0  0  0
  1  2  3  0
  2  3  1  0
  3  4  1  0
  4  5  3  0
  3  6  2  3
  6  7  1  0
  7  8  3  0
  6  9  1  0
  9 10  1  0
  9 11  2  3
 11 12  1  0
 12 13  1  0
 13 14  2  0
 14 15  1  0
 15 16  2  0
 16 17  1  0
 16 18  1  0
 18 19  1  0
 19 20  1  0
 17 12  2  0
 20 15  1  0
 10 21  1  0
 10 22  1  0
 11 23  1  0
 13 24  1  0
 14 25  1  0
 17 26  1  0
 18 27  1  0
 18 28  1  0
 19 29  1  0
 19 30  1  0
 20 31  1  0
 20 32  1  0
M  END
$$$$
