
     RDKit          3D

 34 36  0  0  0  0  0  0  0  0999 V2000
    6.0345    1.4429    0.8295 N   0  0  0  0  0  0  0  0  0  0  0  0
    4.9441    1.0711    0.9732 C   0  0  0  0  0  0  0  0  0  0  0  0
    3.5894    0.6671    1.1350 C   0  0  0  0  0  0  0  0  0  0  0  0
    3.2250    0.0825    2.3825 C   0  0  0  0  0  0  0  0  0  0  0  0
    2.8749   -0.3915    3.3823 N   0  0  0  0  0  0  0  0  0  0  0  0
    2.6861    0.8381    0.1317 C   0  0  0  0  0  0  0  0  0  0  0  0
    2.9763    1.3917   -1.1113 N   0  0  0  0  0  0  0  0  0  0  0  0
    1.2761    0.4134    0.2889 C   0  0  0  0  0  0  0  0  0  0  0  0
    0.4148    1.4438    0.7845 C   0  0  0  0  0  0  0  0  0  0  0  0
   -0.2212    2.2975    1.2468 N   0  0  0  0  0  0  0  0  0  0  0  0
    0.8395   -0.8489    0.0837 C   0  0  0  0  0  0  0  0  0  0  0  0
    1.8034   -2.0049   -0.0517 C   0  0  0  0  0  0  0  0  0  0  0  0
    3.0049   -1.9673   -0.2256 O   0  0  0  0  0  0  0  0  0  0  0  0
    1.0392   -3.1299    0.1522 N   0  0  0  0  0  0  0  0  0  0  0  0
   -0.3035   -2.8200    0.2924 C   0  0  0  0  0  0  0  0  0  0  0  0
   -1.2367   -3.7581    0.4446 N   0  0  0  0  0  0  0  0  0  0  0  0
   -2.4792   -3.2697    0.4488 C   0  0  0  0  0  0  0  0  0  0  0  0
   -2.8212   -1.9833    0.2505 N   0  0  0  0  0  0  0  0  0  0  0  0
   -1.8186   -1.0782    0.0498 C   0  0  0  0  0  0  0  0  0  0  0  0
   -2.2667    0.2327   -0.4488 C   0  0  0  0  0  0  0  0  0  0  0  0
   -3.4317    0.8420    0.0183 C   0  0  0  0  0  0  0  0  0  0  0  0
   -3.8310    2.0577   -0.5309 C   0  0  0  0  0  0  0  0  0  0  0  0
   -3.0699    2.6298   -1.5409 C   0  0  0  0  0  0  0  0  0  0  0  0
   -1.9338    1.9608   -1.9610 C   0  0  0  0  0  0  0  0  0  0  0  0
   -1.5121    0.7843   -1.4414 N   0  0  0  0  0  0  0  0  0  0  0  0
   -0.5018   -1.4543    0.1725 C   0  0  0  0  0  0  0  0  0  0  0  0
    3.8428    1.9218   -1.1997 H   0  0  0  0  0  0  0  0  0  0  0  0
    2.1956    1.8076   -1.6172 H   0  0  0  0  0  0  0  0  0  0  0  0
    1.3937   -4.0732    0.1504 H   0  0  0  0  0  0  0  0  0  0  0  0
   -3.2894   -3.9745    0.6047 H   0  0  0  0  0  0  0  0  0  0  0  0
   -4.0248    0.3760    0.7997 H   0  0  0  0  0  0  0  0  0  0  0  0
   -4.7311    2.5500   -0.1736 H   0  0  0  0  0  0  0  0  0  0  0  0
   -3.3560    3.5744   -1.9897 H   0  0  0  0  0  0  0  0  0  0  0  0
   -1.3117    2.3685   -2.7528 H   0  0  0  0  0  0  0  0  0  0  0  0
  1  2  3  0
  2  3  1  0
  3  4  1  0
  4  5  3  0
  3  6  2  3
  6  7  1  0
  6  8  1  0
  8  9  1  0
  9 10  3  0
  8 11  2  3
 11 12  1  0
 12 13  2  0
 12 14  1  0
 14 15  1  0
 15 16  2  0
 16 17  1  0
 17 18  2  0
 18 19  1  0
 19 20  1  0
 20 21  2  0
 21 22  1  0
 22 23  2  0
 23 24  1  0
 24 25  2  0
 19 26  2  0
 26 11  1  0
 26 15  1  0
 25 20  1  0
  7 27  1  0
  7 28  1  0
 14 29  1  0
 17 30  1  0
 21 31  1  0
 22 32  1  0
 23 33  1  0
 24 34  1  0
M  END
$$$$
