
     RDKit          3D

 25 26  0  0  0  0  0  0  0  0999 V2000
    3.6823   -0.1466    0.1396 C   0  0  0  0  0  0  0  0  0  0  0  0
    2.8860   -1.0688    0.8099 C   0  0  0  0  0  0  0  0  0  0  0  0
    1.4940   -1.0424    0.6566 C   0  0  0  0  0  0  0  0  0  0  0  0
    0.8634   -0.0904   -0.1582 C   0  0  0  0  0  0  0  0  0  0  0  0
   -0.5268   -0.0292   -0.3506 N   0  0  0  0  0  0  0  0  0  0  0  0
   -1.3424   -1.1801    0.0928 C   0  0  0  0  0  0  0  0  0  0  0  0
   -2.7899   -1.0124   -0.3953 C   0  0  0  0  0  0  0  0  0  0  0  0
   -3.3623    0.2173    0.0790 O   0  0  0  0  0  0  0  0  0  0  0  0
   -2.5941    1.3316   -0.4030 C   0  0  0  0  0  0  0  0  0  0  0  0
   -1.1302    1.2619    0.0642 C   0  0  0  0  0  0  0  0  0  0  0  0
    1.6955    0.8189   -0.8348 C   0  0  0  0  0  0  0  0  0  0  0  0
    3.0864    0.7973   -0.6881 C   0  0  0  0  0  0  0  0  0  0  0  0
    4.7621   -0.1690    0.2558 H   0  0  0  0  0  0  0  0  0  0  0  0
    3.3438   -1.8139    1.4552 H   0  0  0  0  0  0  0  0  0  0  0  0
    0.9180   -1.7790    1.2075 H   0  0  0  0  0  0  0  0  0  0  0  0
   -1.3428   -1.2337    1.1889 H   0  0  0  0  0  0  0  0  0  0  0  0
   -0.9440   -2.1170   -0.3134 H   0  0  0  0  0  0  0  0  0  0  0  0
   -3.4071   -1.8326   -0.0153 H   0  0  0  0  0  0  0  0  0  0  0  0
   -2.8431   -1.0324   -1.4905 H   0  0  0  0  0  0  0  0  0  0  0  0
   -2.6551    1.3579   -1.4976 H   0  0  0  0  0  0  0  0  0  0  0  0
   -3.0614    2.2449   -0.0212 H   0  0  0  0  0  0  0  0  0  0  0  0
   -0.5978    2.1217   -0.3561 H   0  0  0  0  0  0  0  0  0  0  0  0
   -1.0937    1.3372    1.1587 H   0  0  0  0  0  0  0  0  0  0  0  0
    1.2605    1.5458   -1.5161 H   0  0  0  0  0  0  0  0  0  0  0  0
    3.6986    1.5130   -1.2297 H   0  0  0  0  0  0  0  0  0  0  0  0
  1  2  2  0
  2  3  1  0
  3  4  2  0
  4  5  1  0
  5  6  1  0
  6  7  1  0
  7  8  1  0
  8  9  1  0
  9 10  1  0
  4 11  1  0
 11 12  2  0
 12  1  1  0
 10  5  1  0
  1 13  1  0
  2 14  1  0
  3 15  1  0
  6 16  1  0
  6 17  1  0
  7 18  1  0
  7 19  1  0
  9 20  1  0
  9 21  1  0
 10 22  1  0
 10 23  1  0
 11 24  1  0
 12 25  1  0
M  END
$$$$
