
     RDKit          3D

 36 36  0  0  0  0  0  0  0  0999 V2000
   -5.2757    1.3712    0.6693 C   0  0  0  0  0  0  0  0  0  0  0  0
   -4.1545    0.5053    0.2299 C   0  0  0  0  0  0  0  0  0  0  0  0
   -4.1489   -0.7675   -0.2942 C   0  0  0  0  0  0  0  0  0  0  0  0
   -2.7971   -1.1351   -0.5378 C   0  0  0  0  0  0  0  0  0  0  0  0
   -2.3379   -2.4332   -1.1035 C   0  0  0  0  0  0  0  0  0  0  0  0
   -2.0026   -0.0671   -0.1392 C   0  0  0  0  0  0  0  0  0  0  0  0
   -0.5915    0.1077   -0.1965 C   0  0  0  0  0  0  0  0  0  0  0  0
    0.1807    0.8235    0.6462 C   0  0  0  0  0  0  0  0  0  0  0  0
   -0.3198    1.5695    1.7576 C   0  0  0  0  0  0  0  0  0  0  0  0
   -0.7482    2.2090    2.6263 N   0  0  0  0  0  0  0  0  0  0  0  0
    1.6410    0.8608    0.4427 C   0  0  0  0  0  0  0  0  0  0  0  0
    2.0953    1.9335   -0.3166 N   0  0  0  0  0  0  0  0  0  0  0  0
    2.4404   -0.1071    0.9680 C   0  0  0  0  0  0  0  0  0  0  0  0
    1.9118   -1.1902    1.7482 C   0  0  0  0  0  0  0  0  0  0  0  0
    1.4890   -2.0806    2.3593 N   0  0  0  0  0  0  0  0  0  0  0  0
    3.9041   -0.1290    0.7649 C   0  0  0  0  0  0  0  0  0  0  0  0
    4.6360    0.5418    1.7383 N   0  0  0  0  0  0  0  0  0  0  0  0
    4.4371   -0.7736   -0.3072 C   0  0  0  0  0  0  0  0  0  0  0  0
    5.8444   -0.8020   -0.5153 C   0  0  0  0  0  0  0  0  0  0  0  0
    6.9928   -0.7822   -0.6794 N   0  0  0  0  0  0  0  0  0  0  0  0
    3.6173   -1.4149   -1.2810 C   0  0  0  0  0  0  0  0  0  0  0  0
    2.9094   -1.8932   -2.0658 N   0  0  0  0  0  0  0  0  0  0  0  0
   -2.8487    0.9234    0.3083 N   0  0  0  0  0  0  0  0  0  0  0  0
   -5.2973    2.2975    0.0863 H   0  0  0  0  0  0  0  0  0  0  0  0
   -6.2375    0.8652    0.5379 H   0  0  0  0  0  0  0  0  0  0  0  0
   -5.1701    1.6295    1.7278 H   0  0  0  0  0  0  0  0  0  0  0  0
   -5.0263   -1.3743   -0.4820 H   0  0  0  0  0  0  0  0  0  0  0  0
   -1.8616   -2.2779   -2.0768 H   0  0  0  0  0  0  0  0  0  0  0  0
   -3.1762   -3.1236   -1.2423 H   0  0  0  0  0  0  0  0  0  0  0  0
   -1.6152   -2.9103   -0.4338 H   0  0  0  0  0  0  0  0  0  0  0  0
   -0.0967   -0.4540   -0.9903 H   0  0  0  0  0  0  0  0  0  0  0  0
    3.0233    1.8505   -0.7200 H   0  0  0  0  0  0  0  0  0  0  0  0
    1.4151    2.3061   -0.9802 H   0  0  0  0  0  0  0  0  0  0  0  0
    5.6015    0.7860    1.5180 H   0  0  0  0  0  0  0  0  0  0  0  0
    4.1419    1.3011    2.2107 H   0  0  0  0  0  0  0  0  0  0  0  0
   -2.5752    1.8341    0.6540 H   0  0  0  0  0  0  0  0  0  0  0  0
  1  2  1  0
  2  3  2  0
  3  4  1  0
  4  5  1  0
  4  6  2  0
  6  7  1  0
  7  8  2  3
  8  9  1  0
  9 10  3  0
  8 11  1  0
 11 12  1  0
 11 13  2  3
 13 14  1  0
 14 15  3  0
 13 16  1  0
 16 17  1  0
 16 18  2  3
 18 19  1  0
 19 20  3  0
 18 21  1  0
 21 22  3  0
  6 23  1  0
 23  2  1  0
  1 24  1  0
  1 25  1  0
  1 26  1  0
  3 27  1  0
  5 28  1  0
  5 29  1  0
  5 30  1  0
  7 31  1  0
 12 32  1  0
 12 33  1  0
 17 34  1  0
 17 35  1  0
 23 36  1  0
M  END
$$$$
