
     RDKit          3D

 44 47  0  0  0  0  0  0  0  0999 V2000
    5.3245   -1.5583   -1.8017 C   0  0  0  0  0  0  0  0  0  0  0  0
    4.5388   -1.0787   -0.6175 C   0  0  0  0  0  0  0  0  0  0  0  0
    5.1369   -0.9934    0.6444 C   0  0  0  0  0  0  0  0  0  0  0  0
    4.3969   -0.5690    1.7484 C   0  0  0  0  0  0  0  0  0  0  0  0
    3.0493   -0.2363    1.6036 C   0  0  0  0  0  0  0  0  0  0  0  0
    2.4342   -0.3187    0.3505 C   0  0  0  0  0  0  0  0  0  0  0  0
    1.0062   -0.0300    0.1761 C   0  0  0  0  0  0  0  0  0  0  0  0
    0.3843    1.1411    0.3929 C   0  0  0  0  0  0  0  0  0  0  0  0
    1.0297    2.4459    0.7989 C   0  0  0  0  0  0  0  0  0  0  0  0
    2.1931    2.6440    1.0903 O   0  0  0  0  0  0  0  0  0  0  0  0
    0.0002    3.3722    0.7620 N   0  0  0  0  0  0  0  0  0  0  0  0
    0.1253    4.7737    1.0503 C   0  0  0  0  0  0  0  0  0  0  0  0
   -1.2148    2.7816    0.4015 C   0  0  0  0  0  0  0  0  0  0  0  0
   -2.3669    3.4473    0.2977 N   0  0  0  0  0  0  0  0  0  0  0  0
   -3.3994    2.6692   -0.0394 C   0  0  0  0  0  0  0  0  0  0  0  0
   -3.3612    1.3390   -0.2472 N   0  0  0  0  0  0  0  0  0  0  0  0
   -2.1766    0.7027   -0.1143 C   0  0  0  0  0  0  0  0  0  0  0  0
   -2.1038   -0.7008   -0.2652 N   0  0  0  0  0  0  0  0  0  0  0  0
   -3.0613   -1.5856   -0.8126 C   0  0  0  0  0  0  0  0  0  0  0  0
   -3.0014   -2.9465   -0.4704 C   0  0  0  0  0  0  0  0  0  0  0  0
   -3.8826   -3.8751   -1.0340 C   0  0  0  0  0  0  0  0  0  0  0  0
   -4.8237   -3.4606   -1.9709 C   0  0  0  0  0  0  0  0  0  0  0  0
   -4.8729   -2.1225   -2.3514 C   0  0  0  0  0  0  0  0  0  0  0  0
   -3.9888   -1.1972   -1.7857 C   0  0  0  0  0  0  0  0  0  0  0  0
   -1.0431    1.4231    0.1935 C   0  0  0  0  0  0  0  0  0  0  0  0
    3.1807   -0.7562   -0.7519 C   0  0  0  0  0  0  0  0  0  0  0  0
    5.2098   -2.6412   -1.9144 H   0  0  0  0  0  0  0  0  0  0  0  0
    6.3884   -1.3250   -1.6868 H   0  0  0  0  0  0  0  0  0  0  0  0
    4.9828   -1.0679   -2.7202 H   0  0  0  0  0  0  0  0  0  0  0  0
    6.1859   -1.2494    0.7747 H   0  0  0  0  0  0  0  0  0  0  0  0
    4.8712   -0.4903    2.7225 H   0  0  0  0  0  0  0  0  0  0  0  0
    2.4913    0.0985    2.4743 H   0  0  0  0  0  0  0  0  0  0  0  0
    0.4566   -0.8850   -0.2084 H   0  0  0  0  0  0  0  0  0  0  0  0
    1.1557    5.0159    1.3250 H   0  0  0  0  0  0  0  0  0  0  0  0
   -0.5349    5.0345    1.8826 H   0  0  0  0  0  0  0  0  0  0  0  0
   -0.1510    5.3516    0.1635 H   0  0  0  0  0  0  0  0  0  0  0  0
   -4.3651    3.1507   -0.1522 H   0  0  0  0  0  0  0  0  0  0  0  0
   -1.6692   -1.1023    0.5602 H   0  0  0  0  0  0  0  0  0  0  0  0
   -2.2655   -3.3018    0.2461 H   0  0  0  0  0  0  0  0  0  0  0  0
   -3.8278   -4.9215   -0.7455 H   0  0  0  0  0  0  0  0  0  0  0  0
   -5.5095   -4.1793   -2.4124 H   0  0  0  0  0  0  0  0  0  0  0  0
   -5.5933   -1.7940   -3.0956 H   0  0  0  0  0  0  0  0  0  0  0  0
   -4.0349   -0.1660   -2.1244 H   0  0  0  0  0  0  0  0  0  0  0  0
    2.7061   -0.8383   -1.7283 H   0  0  0  0  0  0  0  0  0  0  0  0
  1  2  1  0
  2  3  2  0
  3  4  1  0
  4  5  2  0
  5  6  1  0
  6  7  1  0
  7  8  2  3
  8  9  1  0
  9 10  2  0
  9 11  1  0
 11 12  1  0
 11 13  1  0
 13 14  2  0
 14 15  1  0
 15 16  2  0
 16 17  1  0
 17 18  1  0
 18 19  1  0
 19 20  2  0
 20 21  1  0
 21 22  2  0
 22 23  1  0
 23 24  2  0
 17 25  2  0
  6 26  2  0
 26  2  1  0
 25  8  1  0
 25 13  1  0
 24 19  1  0
  1 27  1  0
  1 28  1  0
  1 29  1  0
  3 30  1  0
  4 31  1  0
  5 32  1  0
  7 33  1  0
 12 34  1  0
 12 35  1  0
 12 36  1  0
 15 37  1  0
 18 38  1  0
 20 39  1  0
 21 40  1  0
 22 41  1  0
 23 42  1  0
 24 43  1  0
 26 44  1  0
M  END
$$$$
