
     RDKit          3D

 54 57  0  0  0  0  0  0  0  0999 V2000
   -4.7089   -3.2610   -1.0974 C   0  0  0  0  0  0  0  0  0  0  0  0
   -4.2517   -1.8701   -1.1337 N   0  0  0  0  0  0  0  0  0  0  0  0
   -2.7999   -1.6777   -1.3059 C   0  0  0  0  0  0  0  0  0  0  0  0
   -2.0461   -1.7608    0.0255 C   0  0  0  0  0  0  0  0  0  0  0  0
   -0.6043   -1.5882   -0.2184 N   0  0  0  0  0  0  0  0  0  0  0  0
   -0.2433   -0.4075   -0.0611 N   0  0  0  0  0  0  0  0  0  0  0  0
    1.0728   -0.3891   -0.3371 N   0  0  0  0  0  0  0  0  0  0  0  0
    1.8572    0.6721    0.1455 C   0  0  0  0  0  0  0  0  0  0  0  0
    1.3095    1.8725    0.5960 C   0  0  0  0  0  0  0  0  0  0  0  0
    2.1342    2.9290    1.0012 C   0  0  0  0  0  0  0  0  0  0  0  0
    3.5175    2.8407    0.9559 C   0  0  0  0  0  0  0  0  0  0  0  0
    4.2386    3.8955    1.3502 N   0  0  0  0  0  0  0  0  0  0  0  0
    5.5694    3.7834    1.2737 C   0  0  0  0  0  0  0  0  0  0  0  0
    6.2449    2.7145    0.8458 N   0  0  0  0  0  0  0  0  0  0  0  0
    5.5007    1.6514    0.4675 C   0  0  0  0  0  0  0  0  0  0  0  0
    6.3064    0.4964    0.0395 C   0  0  0  0  0  0  0  0  0  0  0  0
    7.1186    0.5785   -1.1047 C   0  0  0  0  0  0  0  0  0  0  0  0
    7.8887   -0.5103   -1.5213 C   0  0  0  0  0  0  0  0  0  0  0  0
    7.8636   -1.6982   -0.7938 C   0  0  0  0  0  0  0  0  0  0  0  0
    7.0758   -1.7882    0.3510 C   0  0  0  0  0  0  0  0  0  0  0  0
    7.0469   -3.2529    1.2542 Cl  0  0  0  0  0  0  0  0  0  0  0  0
    6.3063   -0.7029    0.7713 C   0  0  0  0  0  0  0  0  0  0  0  0
    4.0940    1.6543    0.4878 C   0  0  0  0  0  0  0  0  0  0  0  0
    3.2518    0.5871    0.0671 C   0  0  0  0  0  0  0  0  0  0  0  0
   -5.0796   -0.8501   -0.6697 C   0  0  0  0  0  0  0  0  0  0  0  0
   -4.6366    0.4826   -0.5421 C   0  0  0  0  0  0  0  0  0  0  0  0
   -5.4634    1.5227   -0.0816 C   0  0  0  0  0  0  0  0  0  0  0  0
   -6.7810    1.2595    0.2600 C   0  0  0  0  0  0  0  0  0  0  0  0
   -7.5791    2.2548    0.7358 O   0  0  0  0  0  0  0  0  0  0  0  0
   -7.2485   -0.0404    0.1248 C   0  0  0  0  0  0  0  0  0  0  0  0
   -8.6222   -0.3590    0.4488 N   0  0  0  0  0  0  0  0  0  0  0  0
   -8.8057   -1.1847    1.3559 O   0  0  0  0  0  0  0  0  0  0  0  0
   -9.5103    0.1636   -0.2390 O   0  0  0  0  0  0  0  0  0  0  0  0
   -6.4216   -1.0825   -0.3274 C   0  0  0  0  0  0  0  0  0  0  0  0
   -3.9455   -3.9460   -1.4832 H   0  0  0  0  0  0  0  0  0  0  0  0
   -5.5943   -3.3990   -1.7272 H   0  0  0  0  0  0  0  0  0  0  0  0
   -4.9344   -3.5717   -0.0712 H   0  0  0  0  0  0  0  0  0  0  0  0
   -2.5814   -0.7396   -1.8293 H   0  0  0  0  0  0  0  0  0  0  0  0
   -2.4094   -2.4506   -1.9818 H   0  0  0  0  0  0  0  0  0  0  0  0
   -2.4201   -1.0228    0.7460 H   0  0  0  0  0  0  0  0  0  0  0  0
   -2.2007   -2.7460    0.4799 H   0  0  0  0  0  0  0  0  0  0  0  0
    1.5191   -1.3007   -0.3364 H   0  0  0  0  0  0  0  0  0  0  0  0
    0.2315    2.0075    0.6379 H   0  0  0  0  0  0  0  0  0  0  0  0
    1.6775    3.8512    1.3544 H   0  0  0  0  0  0  0  0  0  0  0  0
    6.1536    4.6409    1.5893 H   0  0  0  0  0  0  0  0  0  0  0  0
    7.1558    1.5058   -1.6749 H   0  0  0  0  0  0  0  0  0  0  0  0
    8.5113   -0.4270   -2.4087 H   0  0  0  0  0  0  0  0  0  0  0  0
    8.4648   -2.5434   -1.1179 H   0  0  0  0  0  0  0  0  0  0  0  0
    5.7112   -0.7857    1.6782 H   0  0  0  0  0  0  0  0  0  0  0  0
    3.6973   -0.3201   -0.3357 H   0  0  0  0  0  0  0  0  0  0  0  0
   -3.6173    0.7590   -0.7986 H   0  0  0  0  0  0  0  0  0  0  0  0
   -5.0471    2.5226    0.0018 H   0  0  0  0  0  0  0  0  0  0  0  0
   -7.1112    3.1057    0.6871 H   0  0  0  0  0  0  0  0  0  0  0  0
   -6.8555   -2.0752   -0.4079 H   0  0  0  0  0  0  0  0  0  0  0  0
  1  2  1  0
  2  3  1  0
  3  4  1  0
  4  5  1  0
  5  6  2  0
  6  7  1  0
  7  8  1  0
  8  9  1  0
  9 10  2  0
 10 11  1  0
 11 12  2  0
 12 13  1  0
 13 14  2  0
 14 15  1  0
 15 16  1  0
 16 17  2  0
 17 18  1  0
 18 19  2  0
 19 20  1  0
 20 21  1  0
 20 22  2  0
 15 23  2  0
 23 24  1  0
  2 25  1  0
 25 26  1  0
 26 27  2  0
 27 28  1  0
 28 29  1  0
 28 30  2  0
 30 31  1  0
 31 32  2  0
 31 33  1  0
 30 34  1  0
 24  8  2  0
 34 25  2  0
 23 11  1  0
 22 16  1  0
  1 35  1  0
  1 36  1  0
  1 37  1  0
  3 38  1  0
  3 39  1  0
  4 40  1  0
  4 41  1  0
  7 42  1  0
  9 43  1  0
 10 44  1  0
 13 45  1  0
 17 46  1  0
 18 47  1  0
 19 48  1  0
 22 49  1  0
 24 50  1  0
 26 51  1  0
 27 52  1  0
 29 53  1  0
 34 54  1  0
M  CHG  2  31   1  33  -1
M  END
$$$$
