
     RDKit          3D

 35 37  0  0  0  0  0  0  0  0999 V2000
    2.1658   -3.6837    0.4205 N   0  0  0  0  0  0  0  0  0  0  0  0
    2.0692   -2.5312    0.5123 C   0  0  0  0  0  0  0  0  0  0  0  0
    1.9754   -1.1121    0.5760 C   0  0  0  0  0  0  0  0  0  0  0  0
    2.0655   -0.5117    1.8641 C   0  0  0  0  0  0  0  0  0  0  0  0
    2.1039    0.0240    2.8921 N   0  0  0  0  0  0  0  0  0  0  0  0
    1.8243   -0.3731   -0.5572 C   0  0  0  0  0  0  0  0  0  0  0  0
    1.7428   -0.9102   -1.8417 N   0  0  0  0  0  0  0  0  0  0  0  0
    1.8118    1.1048   -0.5093 C   0  0  0  0  0  0  0  0  0  0  0  0
    3.0462    1.6700   -0.9914 C   0  0  0  0  0  0  0  0  0  0  0  0
    4.0717    2.0084   -1.4156 N   0  0  0  0  0  0  0  0  0  0  0  0
    0.8136    1.8803   -0.0255 C   0  0  0  0  0  0  0  0  0  0  0  0
    1.0272    3.3732    0.1377 C   0  0  0  0  0  0  0  0  0  0  0  0
    1.9241    4.0569   -0.3080 O   0  0  0  0  0  0  0  0  0  0  0  0
   -0.0154    3.8057    0.9129 N   0  0  0  0  0  0  0  0  0  0  0  0
   -0.9142    2.7902    1.1767 C   0  0  0  0  0  0  0  0  0  0  0  0
   -2.0255    3.0155    1.8766 N   0  0  0  0  0  0  0  0  0  0  0  0
   -2.8105    1.9446    1.9780 C   0  0  0  0  0  0  0  0  0  0  0  0
   -2.5792    0.7520    1.4042 N   0  0  0  0  0  0  0  0  0  0  0  0
   -1.4431    0.5954    0.6694 C   0  0  0  0  0  0  0  0  0  0  0  0
   -1.4181   -0.6905   -0.0319 C   0  0  0  0  0  0  0  0  0  0  0  0
   -1.4242   -0.7583   -1.4352 C   0  0  0  0  0  0  0  0  0  0  0  0
   -1.4770   -1.9902   -2.0955 C   0  0  0  0  0  0  0  0  0  0  0  0
   -1.5388   -3.1734   -1.3623 C   0  0  0  0  0  0  0  0  0  0  0  0
   -1.5635   -3.1204    0.0279 C   0  0  0  0  0  0  0  0  0  0  0  0
   -1.6692   -4.5755    0.9382 Cl  0  0  0  0  0  0  0  0  0  0  0  0
   -1.5084   -1.8940    0.6904 C   0  0  0  0  0  0  0  0  0  0  0  0
   -0.5115    1.6024    0.5753 C   0  0  0  0  0  0  0  0  0  0  0  0
    2.1426   -0.3394   -2.5884 H   0  0  0  0  0  0  0  0  0  0  0  0
    2.0088   -1.8910   -1.9456 H   0  0  0  0  0  0  0  0  0  0  0  0
   -0.1509    4.7592    1.2109 H   0  0  0  0  0  0  0  0  0  0  0  0
   -3.7211    2.0442    2.5591 H   0  0  0  0  0  0  0  0  0  0  0  0
   -1.4020    0.1517   -2.0324 H   0  0  0  0  0  0  0  0  0  0  0  0
   -1.4769   -2.0244   -3.1825 H   0  0  0  0  0  0  0  0  0  0  0  0
   -1.5823   -4.1295   -1.8779 H   0  0  0  0  0  0  0  0  0  0  0  0
   -1.5612   -1.8701    1.7780 H   0  0  0  0  0  0  0  0  0  0  0  0
  1  2  3  0
  2  3  1  0
  3  4  1  0
  4  5  3  0
  3  6  2  3
  6  7  1  0
  6  8  1  0
  8  9  1  0
  9 10  3  0
  8 11  2  3
 11 12  1  0
 12 13  2  0
 12 14  1  0
 14 15  1  0
 15 16  2  0
 16 17  1  0
 17 18  2  0
 18 19  1  0
 19 20  1  0
 20 21  2  0
 21 22  1  0
 22 23  2  0
 23 24  1  0
 24 25  1  0
 24 26  2  0
 19 27  2  0
 27 11  1  0
 27 15  1  0
 26 20  1  0
  7 28  1  0
  7 29  1  0
 14 30  1  0
 17 31  1  0
 21 32  1  0
 22 33  1  0
 23 34  1  0
 26 35  1  0
M  END
$$$$
