
     RDKit          3D

 28 29  0  0  0  0  0  0  0  0999 V2000
   -2.6924    3.1770   -0.0755 O   0  0  0  0  0  0  0  0  0  0  0  0
   -3.3146    2.1060   -0.0508 N   0  0  0  0  0  0  0  0  0  0  0  0
   -4.5532    2.0147   -0.0780 O   0  0  0  0  0  0  0  0  0  0  0  0
   -2.5494    0.8611    0.0240 C   0  0  0  0  0  0  0  0  0  0  0  0
   -1.1459    0.9259   -0.0375 C   0  0  0  0  0  0  0  0  0  0  0  0
   -0.3553   -0.2336    0.0366 C   0  0  0  0  0  0  0  0  0  0  0  0
    1.0399   -0.1201   -0.0462 N   0  0  0  0  0  0  0  0  0  0  0  0
    1.8295   -1.3441   -0.3132 C   0  0  0  0  0  0  0  0  0  0  0  0
    3.2941   -0.9725   -0.5936 C   0  0  0  0  0  0  0  0  0  0  0  0
    3.8643   -0.2391    0.5019 O   0  0  0  0  0  0  0  0  0  0  0  0
    3.1293    0.9766    0.7125 C   0  0  0  0  0  0  0  0  0  0  0  0
    1.6509    0.6992    1.0331 C   0  0  0  0  0  0  0  0  0  0  0  0
   -1.0272   -1.4597    0.1518 C   0  0  0  0  0  0  0  0  0  0  0  0
   -2.4248   -1.5303    0.2145 C   0  0  0  0  0  0  0  0  0  0  0  0
   -3.1919   -0.3727    0.1518 C   0  0  0  0  0  0  0  0  0  0  0  0
   -4.5444   -0.5617    0.2210 O   0  0  0  0  0  0  0  0  0  0  0  0
   -0.6533    1.8866   -0.1761 H   0  0  0  0  0  0  0  0  0  0  0  0
    1.7925   -2.0050    0.5620 H   0  0  0  0  0  0  0  0  0  0  0  0
    1.4330   -1.8782   -1.1845 H   0  0  0  0  0  0  0  0  0  0  0  0
    3.3826   -0.3752   -1.5090 H   0  0  0  0  0  0  0  0  0  0  0  0
    3.8884   -1.8817   -0.7283 H   0  0  0  0  0  0  0  0  0  0  0  0
    3.2254    1.6095   -0.1779 H   0  0  0  0  0  0  0  0  0  0  0  0
    3.5968    1.5051    1.5493 H   0  0  0  0  0  0  0  0  0  0  0  0
    1.5807    0.1476    1.9795 H   0  0  0  0  0  0  0  0  0  0  0  0
    1.1430    1.6610    1.1596 H   0  0  0  0  0  0  0  0  0  0  0  0
   -0.4801   -2.3963    0.2121 H   0  0  0  0  0  0  0  0  0  0  0  0
   -2.9118   -2.4981    0.3120 H   0  0  0  0  0  0  0  0  0  0  0  0
   -5.0063    0.2981    0.1264 H   0  0  0  0  0  0  0  0  0  0  0  0
  1  2  2  0
  2  3  1  0
  2  4  1  0
  4  5  1  0
  5  6  2  0
  6  7  1  0
  7  8  1  0
  8  9  1  0
  9 10  1  0
 10 11  1  0
 11 12  1  0
  6 13  1  0
 13 14  2  0
 14 15  1  0
 15 16  1  0
 15  4  2  0
 12  7  1  0
  5 17  1  0
  8 18  1  0
  8 19  1  0
  9 20  1  0
  9 21  1  0
 11 22  1  0
 11 23  1  0
 12 24  1  0
 12 25  1  0
 13 26  1  0
 14 27  1  0
 16 28  1  0
M  CHG  2   2   1   3  -1
M  END
$$$$
