
     RDKit          3D

 44 46  0  0  0  0  0  0  0  0999 V2000
   -3.4301   -4.2185   -0.2222 C   0  0  0  0  0  0  0  0  0  0  0  0
   -3.1190   -2.8527    0.3153 C   0  0  0  0  0  0  0  0  0  0  0  0
   -4.0805   -2.1349    1.0301 C   0  0  0  0  0  0  0  0  0  0  0  0
   -3.7863   -0.8628    1.5130 C   0  0  0  0  0  0  0  0  0  0  0  0
   -2.5354   -0.2903    1.2665 C   0  0  0  0  0  0  0  0  0  0  0  0
   -1.5561   -0.9719    0.5226 C   0  0  0  0  0  0  0  0  0  0  0  0
   -0.2696   -0.3884    0.2331 N   0  0  0  0  0  0  0  0  0  0  0  0
    0.8759   -1.2020    0.1252 C   0  0  0  0  0  0  0  0  0  0  0  0
    0.9841   -2.3226    0.6308 O   0  0  0  0  0  0  0  0  0  0  0  0
    2.0275   -0.7545   -0.7148 C   0  0  0  0  0  0  0  0  0  0  0  0
    3.3233   -1.1241   -0.3213 C   0  0  0  0  0  0  0  0  0  0  0  0
    4.4280   -0.7619   -1.0957 C   0  0  0  0  0  0  0  0  0  0  0  0
    4.2298   -0.0459   -2.2720 C   0  0  0  0  0  0  0  0  0  0  0  0
    5.2774    0.3284   -3.0598 O   0  0  0  0  0  0  0  0  0  0  0  0
    2.9501    0.3031   -2.6898 C   0  0  0  0  0  0  0  0  0  0  0  0
    1.8444   -0.0611   -1.9184 C   0  0  0  0  0  0  0  0  0  0  0  0
   -0.1709    1.0105    0.2173 C   0  0  0  0  0  0  0  0  0  0  0  0
   -1.1256    1.7739   -0.4242 N   0  0  0  0  0  0  0  0  0  0  0  0
   -0.7917    3.1016   -0.3852 C   0  0  0  0  0  0  0  0  0  0  0  0
   -1.6359    4.1388   -1.0249 C   0  0  0  0  0  0  0  0  0  0  0  0
    0.3833    3.2016    0.3246 C   0  0  0  0  0  0  0  0  0  0  0  0
    0.7793    1.8900    0.7235 C   0  0  0  0  0  0  0  0  0  0  0  0
    1.9655    1.5984    1.5735 C   0  0  0  0  0  0  0  0  0  0  0  0
   -1.8702   -2.2616    0.0608 C   0  0  0  0  0  0  0  0  0  0  0  0
   -2.5340   -4.8480   -0.2285 H   0  0  0  0  0  0  0  0  0  0  0  0
   -4.1770   -4.7237    0.3991 H   0  0  0  0  0  0  0  0  0  0  0  0
   -3.8160   -4.1394   -1.2432 H   0  0  0  0  0  0  0  0  0  0  0  0
   -5.0576   -2.5694    1.2290 H   0  0  0  0  0  0  0  0  0  0  0  0
   -4.5253   -0.3190    2.0959 H   0  0  0  0  0  0  0  0  0  0  0  0
   -2.3281    0.6829    1.7056 H   0  0  0  0  0  0  0  0  0  0  0  0
    3.4702   -1.6963    0.5929 H   0  0  0  0  0  0  0  0  0  0  0  0
    5.4222   -1.0507   -0.7699 H   0  0  0  0  0  0  0  0  0  0  0  0
    6.1007    0.0086   -2.6557 H   0  0  0  0  0  0  0  0  0  0  0  0
    2.8125    0.8513   -3.6177 H   0  0  0  0  0  0  0  0  0  0  0  0
    0.8496    0.1954   -2.2702 H   0  0  0  0  0  0  0  0  0  0  0  0
   -1.9338    1.3881   -0.8933 H   0  0  0  0  0  0  0  0  0  0  0  0
   -1.2001    5.1347   -0.8953 H   0  0  0  0  0  0  0  0  0  0  0  0
   -1.7321    3.9481   -2.0987 H   0  0  0  0  0  0  0  0  0  0  0  0
   -2.6373    4.1461   -0.5824 H   0  0  0  0  0  0  0  0  0  0  0  0
    0.9042    4.1243    0.5507 H   0  0  0  0  0  0  0  0  0  0  0  0
    1.8826    0.6265    2.0682 H   0  0  0  0  0  0  0  0  0  0  0  0
    2.8805    1.6179    0.9745 H   0  0  0  0  0  0  0  0  0  0  0  0
    2.0640    2.3545    2.3601 H   0  0  0  0  0  0  0  0  0  0  0  0
   -1.1426   -2.8249   -0.5207 H   0  0  0  0  0  0  0  0  0  0  0  0
  1  2  1  0
  2  3  2  0
  3  4  1  0
  4  5  2  0
  5  6  1  0
  6  7  1  0
  7  8  1  0
  8  9  2  0
  8 10  1  0
 10 11  1  0
 11 12  2  0
 12 13  1  0
 13 14  1  0
 13 15  2  0
 15 16  1  0
  7 17  1  0
 17 18  1  0
 18 19  1  0
 19 20  1  0
 19 21  2  0
 21 22  1  0
 22 23  1  0
  6 24  2  0
 24  2  1  0
 16 10  2  0
 22 17  2  0
  1 25  1  0
  1 26  1  0
  1 27  1  0
  3 28  1  0
  4 29  1  0
  5 30  1  0
 11 31  1  0
 12 32  1  0
 14 33  1  0
 15 34  1  0
 16 35  1  0
 18 36  1  0
 20 37  1  0
 20 38  1  0
 20 39  1  0
 21 40  1  0
 23 41  1  0
 23 42  1  0
 23 43  1  0
 24 44  1  0
M  END
$$$$
