
     RDKit          3D

 55 58  0  0  0  0  0  0  0  0999 V2000
   -5.3386   -1.9549    2.8058 C   0  0  0  0  0  0  0  0  0  0  0  0
   -5.3237   -1.8732    1.2850 C   0  0  0  0  0  0  0  0  0  0  0  0
   -4.5424   -0.7063    0.8454 N   0  0  0  0  0  0  0  0  0  0  0  0
   -3.0970   -0.9271    0.6595 C   0  0  0  0  0  0  0  0  0  0  0  0
   -2.2575    0.2074    1.2652 C   0  0  0  0  0  0  0  0  0  0  0  0
   -0.8316   -0.1668    1.2709 N   0  0  0  0  0  0  0  0  0  0  0  0
   -0.2999   -0.0204    0.1546 N   0  0  0  0  0  0  0  0  0  0  0  0
    0.9800   -0.3977    0.3156 N   0  0  0  0  0  0  0  0  0  0  0  0
    1.9168   -0.1009   -0.6859 C   0  0  0  0  0  0  0  0  0  0  0  0
    1.5489    0.1998   -1.9974 C   0  0  0  0  0  0  0  0  0  0  0  0
    2.5205    0.4037   -2.9852 C   0  0  0  0  0  0  0  0  0  0  0  0
    3.8770    0.3110   -2.7121 C   0  0  0  0  0  0  0  0  0  0  0  0
    4.7447    0.4999   -3.7124 N   0  0  0  0  0  0  0  0  0  0  0  0
    6.0447    0.3906   -3.4159 C   0  0  0  0  0  0  0  0  0  0  0  0
    6.5575    0.1250   -2.2131 N   0  0  0  0  0  0  0  0  0  0  0  0
    5.6668   -0.0459   -1.2095 C   0  0  0  0  0  0  0  0  0  0  0  0
    6.2980   -0.2789    0.1012 C   0  0  0  0  0  0  0  0  0  0  0  0
    7.1019   -1.4116    0.3173 C   0  0  0  0  0  0  0  0  0  0  0  0
    7.7053   -1.6437    1.5563 C   0  0  0  0  0  0  0  0  0  0  0  0
    7.5202   -0.7385    2.5992 C   0  0  0  0  0  0  0  0  0  0  0  0
    6.7413    0.3980    2.3947 C   0  0  0  0  0  0  0  0  0  0  0  0
    6.5154    1.5226    3.6795 Cl  0  0  0  0  0  0  0  0  0  0  0  0
    6.1385    0.6336    1.1592 C   0  0  0  0  0  0  0  0  0  0  0  0
    4.2744    0.0135   -1.4030 C   0  0  0  0  0  0  0  0  0  0  0  0
    3.2832   -0.2155   -0.4077 C   0  0  0  0  0  0  0  0  0  0  0  0
   -5.2148    0.3245    0.1902 C   0  0  0  0  0  0  0  0  0  0  0  0
   -6.4653    0.7741    0.6529 C   0  0  0  0  0  0  0  0  0  0  0  0
   -7.1575    1.8183    0.0282 C   0  0  0  0  0  0  0  0  0  0  0  0
   -6.6061    2.4396   -1.0784 C   0  0  0  0  0  0  0  0  0  0  0  0
   -7.3090    3.4504   -1.6621 O   0  0  0  0  0  0  0  0  0  0  0  0
   -5.3728    2.0343   -1.5666 C   0  0  0  0  0  0  0  0  0  0  0  0
   -4.6874    0.9888   -0.9309 C   0  0  0  0  0  0  0  0  0  0  0  0
   -5.7902   -1.0618    3.2468 H   0  0  0  0  0  0  0  0  0  0  0  0
   -5.9157   -2.8272    3.1310 H   0  0  0  0  0  0  0  0  0  0  0  0
   -4.3236   -2.0477    3.2079 H   0  0  0  0  0  0  0  0  0  0  0  0
   -4.8806   -2.7909    0.8790 H   0  0  0  0  0  0  0  0  0  0  0  0
   -6.3538   -1.8607    0.9054 H   0  0  0  0  0  0  0  0  0  0  0  0
   -2.8569   -1.0880   -0.3978 H   0  0  0  0  0  0  0  0  0  0  0  0
   -2.8044   -1.8569    1.1640 H   0  0  0  0  0  0  0  0  0  0  0  0
   -2.5649    0.3817    2.3035 H   0  0  0  0  0  0  0  0  0  0  0  0
   -2.4022    1.1540    0.7324 H   0  0  0  0  0  0  0  0  0  0  0  0
    1.3138   -0.3866    1.2731 H   0  0  0  0  0  0  0  0  0  0  0  0
    0.4992    0.2669   -2.2761 H   0  0  0  0  0  0  0  0  0  0  0  0
    2.2029    0.6318   -4.0005 H   0  0  0  0  0  0  0  0  0  0  0  0
    6.7475    0.5347   -4.2284 H   0  0  0  0  0  0  0  0  0  0  0  0
    7.2625   -2.1199   -0.4938 H   0  0  0  0  0  0  0  0  0  0  0  0
    8.3235   -2.5270    1.7035 H   0  0  0  0  0  0  0  0  0  0  0  0
    7.9903   -0.9189    3.5622 H   0  0  0  0  0  0  0  0  0  0  0  0
    5.5471    1.5365    1.0136 H   0  0  0  0  0  0  0  0  0  0  0  0
    3.5883   -0.4993    0.5971 H   0  0  0  0  0  0  0  0  0  0  0  0
   -6.9149    0.3290    1.5352 H   0  0  0  0  0  0  0  0  0  0  0  0
   -8.1186    2.1438    0.4151 H   0  0  0  0  0  0  0  0  0  0  0  0
   -6.8258    3.7473   -2.4499 H   0  0  0  0  0  0  0  0  0  0  0  0
   -4.9242    2.5103   -2.4326 H   0  0  0  0  0  0  0  0  0  0  0  0
   -3.7306    0.6956   -1.3528 H   0  0  0  0  0  0  0  0  0  0  0  0
  1  2  1  0
  2  3  1  0
  3  4  1  0
  4  5  1  0
  5  6  1  0
  6  7  2  0
  7  8  1  0
  8  9  1  0
  9 10  1  0
 10 11  2  0
 11 12  1  0
 12 13  2  0
 13 14  1  0
 14 15  2  0
 15 16  1  0
 16 17  1  0
 17 18  2  0
 18 19  1  0
 19 20  2  0
 20 21  1  0
 21 22  1  0
 21 23  2  0
 16 24  2  0
 24 25  1  0
  3 26  1  0
 26 27  1  0
 27 28  2  0
 28 29  1  0
 29 30  1  0
 29 31  2  0
 31 32  1  0
 25  9  2  0
 32 26  2  0
 24 12  1  0
 23 17  1  0
  1 33  1  0
  1 34  1  0
  1 35  1  0
  2 36  1  0
  2 37  1  0
  4 38  1  0
  4 39  1  0
  5 40  1  0
  5 41  1  0
  8 42  1  0
 10 43  1  0
 11 44  1  0
 14 45  1  0
 18 46  1  0
 19 47  1  0
 20 48  1  0
 23 49  1  0
 25 50  1  0
 27 51  1  0
 28 52  1  0
 30 53  1  0
 31 54  1  0
 32 55  1  0
M  END
$$$$
