
     RDKit          3D

 35 37  0  0  0  0  0  0  0  0999 V2000
   -1.6926   -2.1611    2.4450 C   0  0  0  0  0  0  0  0  0  0  0  0
   -1.0323   -1.2341    1.4876 C   0  0  0  0  0  0  0  0  0  0  0  0
    0.3831   -1.0931    1.3542 C   0  0  0  0  0  0  0  0  0  0  0  0
    0.6525   -0.1411    0.3897 C   0  0  0  0  0  0  0  0  0  0  0  0
    1.9236    0.3691   -0.1271 C   0  0  0  0  0  0  0  0  0  0  0  0
    2.0388    1.6844   -0.5991 C   0  0  0  0  0  0  0  0  0  0  0  0
    3.2556    2.1667   -1.0917 C   0  0  0  0  0  0  0  0  0  0  0  0
    4.3790    1.3441   -1.1193 C   0  0  0  0  0  0  0  0  0  0  0  0
    5.5118    1.9229   -1.6226 O   0  0  0  0  0  0  0  0  0  0  0  0
    4.2801    0.0300   -0.6462 C   0  0  0  0  0  0  0  0  0  0  0  0
    5.4400   -0.8636   -0.6551 N   0  0  0  0  0  0  0  0  0  0  0  0
    6.5006   -0.4187   -1.1244 O   0  0  0  0  0  0  0  0  0  0  0  0
    5.3039   -2.0060   -0.1964 O   0  0  0  0  0  0  0  0  0  0  0  0
    3.0572   -0.4555   -0.1515 C   0  0  0  0  0  0  0  0  0  0  0  0
   -0.5719    0.2800   -0.0658 N   0  0  0  0  0  0  0  0  0  0  0  0
   -1.6147   -0.3594    0.5758 C   0  0  0  0  0  0  0  0  0  0  0  0
   -2.9898   -0.0163    0.1997 C   0  0  0  0  0  0  0  0  0  0  0  0
   -4.1209   -0.6289    0.7208 C   0  0  0  0  0  0  0  0  0  0  0  0
   -5.3754   -0.2116    0.2778 C   0  0  0  0  0  0  0  0  0  0  0  0
   -5.4651    0.8001   -0.6693 C   0  0  0  0  0  0  0  0  0  0  0  0
   -4.2892    1.3566   -1.1392 C   0  0  0  0  0  0  0  0  0  0  0  0
   -3.0594    0.9739   -0.7300 N   0  0  0  0  0  0  0  0  0  0  0  0
   -2.2722   -2.9195    1.9099 H   0  0  0  0  0  0  0  0  0  0  0  0
   -0.9536   -2.6839    3.0615 H   0  0  0  0  0  0  0  0  0  0  0  0
   -2.3555   -1.6120    3.1208 H   0  0  0  0  0  0  0  0  0  0  0  0
    1.1274   -1.6332    1.9266 H   0  0  0  0  0  0  0  0  0  0  0  0
    1.1875    2.3616   -0.5740 H   0  0  0  0  0  0  0  0  0  0  0  0
    3.3254    3.1914   -1.4503 H   0  0  0  0  0  0  0  0  0  0  0  0
    6.2488    1.2760   -1.6155 H   0  0  0  0  0  0  0  0  0  0  0  0
    2.9772   -1.4806    0.2059 H   0  0  0  0  0  0  0  0  0  0  0  0
   -0.7369    0.9627   -0.7939 H   0  0  0  0  0  0  0  0  0  0  0  0
   -4.0565   -1.4198    1.4548 H   0  0  0  0  0  0  0  0  0  0  0  0
   -6.2753   -0.6764    0.6709 H   0  0  0  0  0  0  0  0  0  0  0  0
   -6.4265    1.1451   -1.0325 H   0  0  0  0  0  0  0  0  0  0  0  0
   -4.3046    2.1501   -1.8808 H   0  0  0  0  0  0  0  0  0  0  0  0
  1  2  1  0
  2  3  1  0
  3  4  2  0
  4  5  1  0
  5  6  1  0
  6  7  2  0
  7  8  1  0
  8  9  1  0
  8 10  2  0
 10 11  1  0
 11 12  2  0
 11 13  1  0
 10 14  1  0
  4 15  1  0
 15 16  1  0
 16 17  1  0
 17 18  2  0
 18 19  1  0
 19 20  2  0
 20 21  1  0
 21 22  2  0
 16  2  2  0
 22 17  1  0
 14  5  2  0
  1 23  1  0
  1 24  1  0
  1 25  1  0
  3 26  1  0
  6 27  1  0
  7 28  1  0
  9 29  1  0
 14 30  1  0
 15 31  1  0
 18 32  1  0
 19 33  1  0
 20 34  1  0
 21 35  1  0
M  CHG  2  11   1  13  -1
M  END
$$$$
