
     RDKit          3D

 52 55  0  0  0  0  0  0  0  0999 V2000
    5.0298    0.8670    2.2676 C   0  0  0  0  0  0  0  0  0  0  0  0
    4.2776    1.3948    1.1288 N   0  0  0  0  0  0  0  0  0  0  0  0
    3.7632    2.7688    1.2667 C   0  0  0  0  0  0  0  0  0  0  0  0
    2.4384    2.8190    2.0361 C   0  0  0  0  0  0  0  0  0  0  0  0
    1.3580    2.2502    1.2188 N   0  0  0  0  0  0  0  0  0  0  0  0
    0.3781    1.9121    1.9072 N   0  0  0  0  0  0  0  0  0  0  0  0
   -0.4954    1.3777    1.0338 N   0  0  0  0  0  0  0  0  0  0  0  0
   -1.5191    0.5425    1.5097 C   0  0  0  0  0  0  0  0  0  0  0  0
   -1.8365    0.4237    2.8604 C   0  0  0  0  0  0  0  0  0  0  0  0
   -2.9068   -0.3768    3.2750 C   0  0  0  0  0  0  0  0  0  0  0  0
   -3.7179   -1.0478    2.3715 C   0  0  0  0  0  0  0  0  0  0  0  0
   -4.7185   -1.7983    2.8434 N   0  0  0  0  0  0  0  0  0  0  0  0
   -5.4824   -2.4263    1.9417 C   0  0  0  0  0  0  0  0  0  0  0  0
   -5.3528   -2.3596    0.6157 N   0  0  0  0  0  0  0  0  0  0  0  0
   -4.3485   -1.5808    0.1566 C   0  0  0  0  0  0  0  0  0  0  0  0
   -4.2905   -1.5072   -1.3123 C   0  0  0  0  0  0  0  0  0  0  0  0
   -4.5180   -0.2956   -1.9892 C   0  0  0  0  0  0  0  0  0  0  0  0
   -4.4669   -0.2302   -3.3830 C   0  0  0  0  0  0  0  0  0  0  0  0
   -4.1930   -1.3775   -4.1226 C   0  0  0  0  0  0  0  0  0  0  0  0
   -3.9792   -2.5843   -3.4667 C   0  0  0  0  0  0  0  0  0  0  0  0
   -3.6465   -3.9982   -4.3829 Cl  0  0  0  0  0  0  0  0  0  0  0  0
   -4.0300   -2.6554   -2.0752 C   0  0  0  0  0  0  0  0  0  0  0  0
   -3.4565   -0.8999    1.0056 C   0  0  0  0  0  0  0  0  0  0  0  0
   -2.3512   -0.1064    0.5906 C   0  0  0  0  0  0  0  0  0  0  0  0
    4.2019    0.6793   -0.0632 C   0  0  0  0  0  0  0  0  0  0  0  0
    3.3845    1.0776   -1.1364 C   0  0  0  0  0  0  0  0  0  0  0  0
    3.3104    0.3526   -2.3343 C   0  0  0  0  0  0  0  0  0  0  0  0
    4.0569   -0.8054   -2.4872 C   0  0  0  0  0  0  0  0  0  0  0  0
    3.9572   -1.4871   -3.6649 O   0  0  0  0  0  0  0  0  0  0  0  0
    4.8743   -1.2439   -1.4580 C   0  0  0  0  0  0  0  0  0  0  0  0
    4.9397   -0.5058   -0.2660 C   0  0  0  0  0  0  0  0  0  0  0  0
    4.8688    1.4739    3.1716 H   0  0  0  0  0  0  0  0  0  0  0  0
    4.7084   -0.1511    2.5155 H   0  0  0  0  0  0  0  0  0  0  0  0
    6.1096    0.8723    2.0593 H   0  0  0  0  0  0  0  0  0  0  0  0
    3.6745    3.2807    0.3027 H   0  0  0  0  0  0  0  0  0  0  0  0
    4.5042    3.3575    1.8237 H   0  0  0  0  0  0  0  0  0  0  0  0
    2.1979    3.8647    2.2556 H   0  0  0  0  0  0  0  0  0  0  0  0
    2.5306    2.2872    2.9917 H   0  0  0  0  0  0  0  0  0  0  0  0
   -0.0772    1.0846    0.1573 H   0  0  0  0  0  0  0  0  0  0  0  0
   -1.2504    0.9460    3.6173 H   0  0  0  0  0  0  0  0  0  0  0  0
   -3.1145   -0.4685    4.3381 H   0  0  0  0  0  0  0  0  0  0  0  0
   -6.2845   -3.0477    2.3231 H   0  0  0  0  0  0  0  0  0  0  0  0
   -4.7501    0.6074   -1.4270 H   0  0  0  0  0  0  0  0  0  0  0  0
   -4.6502    0.7104   -3.8873 H   0  0  0  0  0  0  0  0  0  0  0  0
   -4.1579   -1.3269   -5.2073 H   0  0  0  0  0  0  0  0  0  0  0  0
   -3.8769   -3.6108   -1.5741 H   0  0  0  0  0  0  0  0  0  0  0  0
   -2.1403    0.0041   -0.4693 H   0  0  0  0  0  0  0  0  0  0  0  0
    2.7637    1.9627   -1.0698 H   0  0  0  0  0  0  0  0  0  0  0  0
    2.6643    0.6983   -3.1391 H   0  0  0  0  0  0  0  0  0  0  0  0
    4.5459   -2.2580   -3.6213 H   0  0  0  0  0  0  0  0  0  0  0  0
    5.4703   -2.1469   -1.5538 H   0  0  0  0  0  0  0  0  0  0  0  0
    5.6037   -0.8848    0.5060 H   0  0  0  0  0  0  0  0  0  0  0  0
  1  2  1  0
  2  3  1  0
  3  4  1  0
  4  5  1  0
  5  6  2  0
  6  7  1  0
  7  8  1  0
  8  9  1  0
  9 10  2  0
 10 11  1  0
 11 12  2  0
 12 13  1  0
 13 14  2  0
 14 15  1  0
 15 16  1  0
 16 17  2  0
 17 18  1  0
 18 19  2  0
 19 20  1  0
 20 21  1  0
 20 22  2  0
 15 23  2  0
 23 24  1  0
  2 25  1  0
 25 26  1  0
 26 27  2  0
 27 28  1  0
 28 29  1  0
 28 30  2  0
 30 31  1  0
 24  8  2  0
 31 25  2  0
 23 11  1  0
 22 16  1  0
  1 32  1  0
  1 33  1  0
  1 34  1  0
  3 35  1  0
  3 36  1  0
  4 37  1  0
  4 38  1  0
  7 39  1  0
  9 40  1  0
 10 41  1  0
 13 42  1  0
 17 43  1  0
 18 44  1  0
 19 45  1  0
 22 46  1  0
 24 47  1  0
 26 48  1  0
 27 49  1  0
 29 50  1  0
 30 51  1  0
 31 52  1  0
M  END
$$$$
