
     RDKit          3D

 43 46  0  0  0  0  0  0  0  0999 V2000
    7.1398   -0.0184   -1.5481 C   0  0  0  0  0  0  0  0  0  0  0  0
    6.5858    1.0967   -0.9218 C   0  0  0  0  0  0  0  0  0  0  0  0
    5.5883    0.9345    0.0411 C   0  0  0  0  0  0  0  0  0  0  0  0
    5.1422   -0.3474    0.3924 C   0  0  0  0  0  0  0  0  0  0  0  0
    4.0490   -0.5242    1.4173 C   0  0  0  0  0  0  0  0  0  0  0  0
    2.7247   -0.5501    0.7811 N   0  0  0  0  0  0  0  0  0  0  0  0
    1.8106   -0.6468    1.6202 N   0  0  0  0  0  0  0  0  0  0  0  0
    0.6689   -0.6716    0.9087 N   0  0  0  0  0  0  0  0  0  0  0  0
   -0.5405   -0.3456    1.5443 C   0  0  0  0  0  0  0  0  0  0  0  0
   -0.6888   -0.3432    2.9306 C   0  0  0  0  0  0  0  0  0  0  0  0
   -1.9295   -0.0664    3.5180 C   0  0  0  0  0  0  0  0  0  0  0  0
   -3.0619    0.1872    2.7585 C   0  0  0  0  0  0  0  0  0  0  0  0
   -4.2096    0.4557    3.3904 N   0  0  0  0  0  0  0  0  0  0  0  0
   -5.2804    0.6965    2.6250 C   0  0  0  0  0  0  0  0  0  0  0  0
   -5.3130    0.6848    1.2907 N   0  0  0  0  0  0  0  0  0  0  0  0
   -4.1479    0.3942    0.6692 C   0  0  0  0  0  0  0  0  0  0  0  0
   -4.2534    0.3662   -0.7984 C   0  0  0  0  0  0  0  0  0  0  0  0
   -4.1137   -0.8342   -1.5160 C   0  0  0  0  0  0  0  0  0  0  0  0
   -4.2090   -0.8515   -2.9097 C   0  0  0  0  0  0  0  0  0  0  0  0
   -4.4539    0.3300   -3.6061 C   0  0  0  0  0  0  0  0  0  0  0  0
   -4.6106    1.5272   -2.9111 C   0  0  0  0  0  0  0  0  0  0  0  0
   -4.5151    1.5438   -1.5175 C   0  0  0  0  0  0  0  0  0  0  0  0
   -2.9505    0.1453    1.3639 C   0  0  0  0  0  0  0  0  0  0  0  0
   -1.6857   -0.1246    0.7712 C   0  0  0  0  0  0  0  0  0  0  0  0
    5.6968   -1.4612   -0.2538 C   0  0  0  0  0  0  0  0  0  0  0  0
    6.6941   -1.2965   -1.2163 C   0  0  0  0  0  0  0  0  0  0  0  0
    7.9152    0.1090   -2.2988 H   0  0  0  0  0  0  0  0  0  0  0  0
    6.9281    2.0938   -1.1862 H   0  0  0  0  0  0  0  0  0  0  0  0
    5.1583    1.8145    0.5144 H   0  0  0  0  0  0  0  0  0  0  0  0
    4.1027    0.2913    2.1506 H   0  0  0  0  0  0  0  0  0  0  0  0
    4.2194   -1.4562    1.9720 H   0  0  0  0  0  0  0  0  0  0  0  0
    0.7636   -0.3561   -0.0513 H   0  0  0  0  0  0  0  0  0  0  0  0
    0.1597   -0.5518    3.5778 H   0  0  0  0  0  0  0  0  0  0  0  0
   -2.0097   -0.0538    4.6030 H   0  0  0  0  0  0  0  0  0  0  0  0
   -6.2095    0.9208    3.1375 H   0  0  0  0  0  0  0  0  0  0  0  0
   -3.9382   -1.7689   -0.9866 H   0  0  0  0  0  0  0  0  0  0  0  0
   -4.1006   -1.7886   -3.4498 H   0  0  0  0  0  0  0  0  0  0  0  0
   -4.5335    0.3164   -4.6901 H   0  0  0  0  0  0  0  0  0  0  0  0
   -4.8146    2.4481   -3.4512 H   0  0  0  0  0  0  0  0  0  0  0  0
   -4.6512    2.4835   -0.9853 H   0  0  0  0  0  0  0  0  0  0  0  0
   -1.5981   -0.1530   -0.3131 H   0  0  0  0  0  0  0  0  0  0  0  0
    5.3509   -2.4639   -0.0120 H   0  0  0  0  0  0  0  0  0  0  0  0
    7.1205   -2.1657   -1.7102 H   0  0  0  0  0  0  0  0  0  0  0  0
  1  2  2  0
  2  3  1  0
  3  4  2  0
  4  5  1  0
  5  6  1  0
  6  7  2  0
  7  8  1  0
  8  9  1  0
  9 10  1  0
 10 11  2  0
 11 12  1  0
 12 13  2  0
 13 14  1  0
 14 15  2  0
 15 16  1  0
 16 17  1  0
 17 18  2  0
 18 19  1  0
 19 20  2  0
 20 21  1  0
 21 22  2  0
 16 23  2  0
 23 24  1  0
  4 25  1  0
 25 26  2  0
 26  1  1  0
 24  9  2  0
 23 12  1  0
 22 17  1  0
  1 27  1  0
  2 28  1  0
  3 29  1  0
  5 30  1  0
  5 31  1  0
  8 32  1  0
 10 33  1  0
 11 34  1  0
 14 35  1  0
 18 36  1  0
 19 37  1  0
 20 38  1  0
 21 39  1  0
 22 40  1  0
 24 41  1  0
 25 42  1  0
 26 43  1  0
M  END
$$$$
