
     RDKit          3D

 32 32  0  0  0  0  0  0  0  0999 V2000
   -0.3774    0.5515   -3.0954 N   0  0  0  0  0  0  0  0  0  0  0  0
   -0.2008    0.5260   -1.9492 C   0  0  0  0  0  0  0  0  0  0  0  0
   -0.0070    0.5198   -0.5307 C   0  0  0  0  0  0  0  0  0  0  0  0
    1.2173    0.5534    0.0330 C   0  0  0  0  0  0  0  0  0  0  0  0
    2.4816    0.5622   -0.7086 C   0  0  0  0  0  0  0  0  0  0  0  0
    3.2122    1.7522   -0.8179 C   0  0  0  0  0  0  0  0  0  0  0  0
    4.4177    1.7715   -1.5222 C   0  0  0  0  0  0  0  0  0  0  0  0
    4.8917    0.6031   -2.1119 C   0  0  0  0  0  0  0  0  0  0  0  0
    6.0544    0.6461   -2.7789 F   0  0  0  0  0  0  0  0  0  0  0  0
    4.1736   -0.5860   -2.0056 C   0  0  0  0  0  0  0  0  0  0  0  0
    4.7631   -2.0338   -2.7265 Cl  0  0  0  0  0  0  0  0  0  0  0  0
    2.9668   -0.6106   -1.3035 C   0  0  0  0  0  0  0  0  0  0  0  0
   -1.2145    0.4959    0.3115 C   0  0  0  0  0  0  0  0  0  0  0  0
   -1.7796    1.7408    0.5582 N   0  0  0  0  0  0  0  0  0  0  0  0
   -1.6775   -0.6738    0.8321 C   0  0  0  0  0  0  0  0  0  0  0  0
   -0.9896   -1.9144    0.6106 C   0  0  0  0  0  0  0  0  0  0  0  0
   -0.4241   -2.9148    0.4559 N   0  0  0  0  0  0  0  0  0  0  0  0
   -2.8914   -0.7468    1.6792 C   0  0  0  0  0  0  0  0  0  0  0  0
   -2.7575   -0.1905    2.9499 N   0  0  0  0  0  0  0  0  0  0  0  0
   -4.0457   -1.2845    1.1990 C   0  0  0  0  0  0  0  0  0  0  0  0
   -5.2124   -1.3414    2.0132 C   0  0  0  0  0  0  0  0  0  0  0  0
   -6.1405   -1.3799    2.7086 N   0  0  0  0  0  0  0  0  0  0  0  0
   -4.1621   -1.7779   -0.1325 C   0  0  0  0  0  0  0  0  0  0  0  0
   -4.2338   -2.1613   -1.2244 N   0  0  0  0  0  0  0  0  0  0  0  0
    1.3277    0.5846    1.1154 H   0  0  0  0  0  0  0  0  0  0  0  0
    2.8488    2.6712   -0.3621 H   0  0  0  0  0  0  0  0  0  0  0  0
    4.9910    2.6889   -1.6167 H   0  0  0  0  0  0  0  0  0  0  0  0
    2.4117   -1.5434   -1.2213 H   0  0  0  0  0  0  0  0  0  0  0  0
   -1.7344    2.3999   -0.2184 H   0  0  0  0  0  0  0  0  0  0  0  0
   -2.6907    1.7298    1.0140 H   0  0  0  0  0  0  0  0  0  0  0  0
   -1.8025   -0.1329    3.3050 H   0  0  0  0  0  0  0  0  0  0  0  0
   -3.4162   -0.5049    3.6641 H   0  0  0  0  0  0  0  0  0  0  0  0
  1  2  3  0
  2  3  1  0
  3  4  2  3
  4  5  1  0
  5  6  1  0
  6  7  2  0
  7  8  1  0
  8  9  1  0
  8 10  2  0
 10 11  1  0
 10 12  1  0
  3 13  1  0
 13 14  1  0
 13 15  2  3
 15 16  1  0
 16 17  3  0
 15 18  1  0
 18 19  1  0
 18 20  2  3
 20 21  1  0
 21 22  3  0
 20 23  1  0
 23 24  3  0
 12  5  2  0
  4 25  1  0
  6 26  1  0
  7 27  1  0
 12 28  1  0
 14 29  1  0
 14 30  1  0
 19 31  1  0
 19 32  1  0
M  END
$$$$
