
     RDKit          3D

 43 46  0  0  0  0  0  0  0  0999 V2000
    5.9495    2.6360    3.5534 Cl  0  0  0  0  0  0  0  0  0  0  0  0
    5.6612    1.6305    2.1867 C   0  0  0  0  0  0  0  0  0  0  0  0
    6.1377    2.0127    0.9345 C   0  0  0  0  0  0  0  0  0  0  0  0
    5.8970    1.2017   -0.1748 C   0  0  0  0  0  0  0  0  0  0  0  0
    5.1854    0.0095   -0.0274 C   0  0  0  0  0  0  0  0  0  0  0  0
    4.7165   -0.3890    1.2331 C   0  0  0  0  0  0  0  0  0  0  0  0
    3.9270   -1.6669    1.3887 C   0  0  0  0  0  0  0  0  0  0  0  0
    2.4769   -1.4208    1.4049 N   0  0  0  0  0  0  0  0  0  0  0  0
    1.9588   -1.5842    0.2846 N   0  0  0  0  0  0  0  0  0  0  0  0
    0.6501   -1.3161    0.4469 N   0  0  0  0  0  0  0  0  0  0  0  0
   -0.1164   -0.9662   -0.6784 C   0  0  0  0  0  0  0  0  0  0  0  0
    0.2940   -1.2298   -1.9849 C   0  0  0  0  0  0  0  0  0  0  0  0
   -0.5304   -0.9148   -3.0726 C   0  0  0  0  0  0  0  0  0  0  0  0
   -1.7888   -0.3562   -2.9031 C   0  0  0  0  0  0  0  0  0  0  0  0
   -2.5174   -0.0717   -3.9884 N   0  0  0  0  0  0  0  0  0  0  0  0
   -3.7249    0.4682   -3.7832 C   0  0  0  0  0  0  0  0  0  0  0  0
   -4.2735    0.7438   -2.5980 N   0  0  0  0  0  0  0  0  0  0  0  0
   -3.5290    0.4348   -1.5132 C   0  0  0  0  0  0  0  0  0  0  0  0
   -4.1869    0.7423   -0.2350 C   0  0  0  0  0  0  0  0  0  0  0  0
   -4.6954   -0.2800    0.5837 C   0  0  0  0  0  0  0  0  0  0  0  0
   -5.3055    0.0191    1.8042 C   0  0  0  0  0  0  0  0  0  0  0  0
   -5.4201    1.3442    2.2203 C   0  0  0  0  0  0  0  0  0  0  0  0
   -4.9342    2.3718    1.4145 C   0  0  0  0  0  0  0  0  0  0  0  0
   -4.3251    2.0725    0.1939 C   0  0  0  0  0  0  0  0  0  0  0  0
   -2.2405   -0.1206   -1.5996 C   0  0  0  0  0  0  0  0  0  0  0  0
   -1.3990   -0.4366   -0.4975 C   0  0  0  0  0  0  0  0  0  0  0  0
    4.9528    0.4390    2.3410 C   0  0  0  0  0  0  0  0  0  0  0  0
    6.6940    2.9390    0.8144 H   0  0  0  0  0  0  0  0  0  0  0  0
    6.2601    1.4992   -1.1558 H   0  0  0  0  0  0  0  0  0  0  0  0
    4.9939   -0.6066   -0.9044 H   0  0  0  0  0  0  0  0  0  0  0  0
    4.2066   -2.3849    0.6050 H   0  0  0  0  0  0  0  0  0  0  0  0
    4.2057   -2.1451    2.3360 H   0  0  0  0  0  0  0  0  0  0  0  0
    0.4298   -0.8056    1.2962 H   0  0  0  0  0  0  0  0  0  0  0  0
    1.2647   -1.6798   -2.1793 H   0  0  0  0  0  0  0  0  0  0  0  0
   -0.1754   -1.1164   -4.0813 H   0  0  0  0  0  0  0  0  0  0  0  0
   -4.3127    0.7038   -4.6637 H   0  0  0  0  0  0  0  0  0  0  0  0
   -4.6259   -1.3186    0.2665 H   0  0  0  0  0  0  0  0  0  0  0  0
   -5.6966   -0.7822    2.4259 H   0  0  0  0  0  0  0  0  0  0  0  0
   -5.8992    1.5769    3.1682 H   0  0  0  0  0  0  0  0  0  0  0  0
   -5.0321    3.4068    1.7317 H   0  0  0  0  0  0  0  0  0  0  0  0
   -3.9580    2.8841   -0.4316 H   0  0  0  0  0  0  0  0  0  0  0  0
   -1.7550   -0.2572    0.5156 H   0  0  0  0  0  0  0  0  0  0  0  0
    4.5805    0.1551    3.3222 H   0  0  0  0  0  0  0  0  0  0  0  0
  1  2  1  0
  2  3  1  0
  3  4  2  0
  4  5  1  0
  5  6  2  0
  6  7  1  0
  7  8  1  0
  8  9  2  0
  9 10  1  0
 10 11  1  0
 11 12  1  0
 12 13  2  0
 13 14  1  0
 14 15  2  0
 15 16  1  0
 16 17  2  0
 17 18  1  0
 18 19  1  0
 19 20  2  0
 20 21  1  0
 21 22  2  0
 22 23  1  0
 23 24  2  0
 18 25  2  0
 25 26  1  0
  6 27  1  0
 27  2  2  0
 26 11  2  0
 25 14  1  0
 24 19  1  0
  3 28  1  0
  4 29  1  0
  5 30  1  0
  7 31  1  0
  7 32  1  0
 10 33  1  0
 12 34  1  0
 13 35  1  0
 16 36  1  0
 20 37  1  0
 21 38  1  0
 22 39  1  0
 23 40  1  0
 24 41  1  0
 26 42  1  0
 27 43  1  0
M  END
$$$$
