
     RDKit          3D

 40 41  0  0  0  0  0  0  0  0999 V2000
   -5.5178    1.4568   -0.1428 C   0  0  0  0  0  0  0  0  0  0  0  0
   -4.3210    1.1050    0.6161 N   0  0  0  0  0  0  0  0  0  0  0  0
   -3.1286    1.7597    0.0363 C   0  0  0  0  0  0  0  0  0  0  0  0
   -1.7909    1.0797    0.4091 C   0  0  0  0  0  0  0  0  0  0  0  0
   -1.7640   -0.3232   -0.0418 N   0  0  0  0  0  0  0  0  0  0  0  0
   -0.6208   -0.9605   -0.4121 C   0  0  0  0  0  0  0  0  0  0  0  0
   -0.4067   -2.1352   -1.1061 C   0  0  0  0  0  0  0  0  0  0  0  0
    0.9926   -2.3438   -1.2031 C   0  0  0  0  0  0  0  0  0  0  0  0
    1.6108   -1.3137   -0.5287 C   0  0  0  0  0  0  0  0  0  0  0  0
    2.9687   -0.9782   -0.3059 C   0  0  0  0  0  0  0  0  0  0  0  0
    3.4539   -0.5980    0.8961 C   0  0  0  0  0  0  0  0  0  0  0  0
    2.7168   -0.5356    2.0699 N   0  0  0  0  0  0  0  0  0  0  0  0
    4.8507   -0.1582    0.9798 C   0  0  0  0  0  0  0  0  0  0  0  0
    5.8344   -1.1900    1.0919 C   0  0  0  0  0  0  0  0  0  0  0  0
    6.6353   -2.0230    1.1853 N   0  0  0  0  0  0  0  0  0  0  0  0
    5.1945    1.1488    0.9471 C   0  0  0  0  0  0  0  0  0  0  0  0
    6.5527    1.5659    1.0325 C   0  0  0  0  0  0  0  0  0  0  0  0
    7.6603    1.9019    1.1021 N   0  0  0  0  0  0  0  0  0  0  0  0
    4.2048    2.1670    0.8186 C   0  0  0  0  0  0  0  0  0  0  0  0
    3.3983    2.9928    0.6982 N   0  0  0  0  0  0  0  0  0  0  0  0
    0.6194   -0.4652   -0.0889 N   0  0  0  0  0  0  0  0  0  0  0  0
   -3.0753   -0.9640   -0.2390 C   0  0  0  0  0  0  0  0  0  0  0  0
   -4.1382   -0.3597    0.7079 C   0  0  0  0  0  0  0  0  0  0  0  0
   -6.4130    1.0563    0.3457 H   0  0  0  0  0  0  0  0  0  0  0  0
   -5.4847    1.0740   -1.1692 H   0  0  0  0  0  0  0  0  0  0  0  0
   -5.6429    2.5447   -0.1825 H   0  0  0  0  0  0  0  0  0  0  0  0
   -3.1983    1.7750   -1.0604 H   0  0  0  0  0  0  0  0  0  0  0  0
   -3.1035    2.8031    0.3716 H   0  0  0  0  0  0  0  0  0  0  0  0
   -1.6395    1.1131    1.4947 H   0  0  0  0  0  0  0  0  0  0  0  0
   -0.9857    1.6577   -0.0601 H   0  0  0  0  0  0  0  0  0  0  0  0
   -1.1749   -2.7755   -1.5168 H   0  0  0  0  0  0  0  0  0  0  0  0
    1.4869   -3.1696   -1.6980 H   0  0  0  0  0  0  0  0  0  0  0  0
    3.6240   -1.0455   -1.1731 H   0  0  0  0  0  0  0  0  0  0  0  0
    1.8868   -1.1340    2.0308 H   0  0  0  0  0  0  0  0  0  0  0  0
    3.2514   -0.7667    2.9067 H   0  0  0  0  0  0  0  0  0  0  0  0
    0.7827    0.3806    0.4380 H   0  0  0  0  0  0  0  0  0  0  0  0
   -3.3896   -0.8424   -1.2828 H   0  0  0  0  0  0  0  0  0  0  0  0
   -3.0133   -2.0388   -0.0297 H   0  0  0  0  0  0  0  0  0  0  0  0
   -5.0898   -0.8894    0.5743 H   0  0  0  0  0  0  0  0  0  0  0  0
   -3.8267   -0.5719    1.7394 H   0  0  0  0  0  0  0  0  0  0  0  0
  1  2  1  0
  2  3  1  0
  3  4  1  0
  4  5  1  0
  5  6  1  0
  6  7  2  0
  7  8  1  0
  8  9  2  0
  9 10  1  0
 10 11  2  3
 11 12  1  0
 11 13  1  0
 13 14  1  0
 14 15  3  0
 13 16  2  3
 16 17  1  0
 17 18  3  0
 16 19  1  0
 19 20  3  0
  9 21  1  0
  5 22  1  0
 22 23  1  0
 23  2  1  0
 21  6  1  0
  1 24  1  0
  1 25  1  0
  1 26  1  0
  3 27  1  0
  3 28  1  0
  4 29  1  0
  4 30  1  0
  7 31  1  0
  8 32  1  0
 10 33  1  0
 12 34  1  0
 12 35  1  0
 21 36  1  0
 22 37  1  0
 22 38  1  0
 23 39  1  0
 23 40  1  0
M  END
$$$$
