
     RDKit          3D

 37 39  0  0  0  0  0  0  0  0999 V2000
   -4.6988    1.2731    2.3853 C   0  0  0  0  0  0  0  0  0  0  0  0
   -4.0248    0.5871    1.2571 C   0  0  0  0  0  0  0  0  0  0  0  0
   -4.5172    0.1240    0.0557 C   0  0  0  0  0  0  0  0  0  0  0  0
   -3.4421   -0.4725   -0.6645 C   0  0  0  0  0  0  0  0  0  0  0  0
   -3.5369   -1.0945   -2.0122 C   0  0  0  0  0  0  0  0  0  0  0  0
   -2.3115   -0.3441    0.1268 C   0  0  0  0  0  0  0  0  0  0  0  0
   -0.9701   -0.7731   -0.1088 C   0  0  0  0  0  0  0  0  0  0  0  0
   -0.4987   -1.9789   -0.5811 C   0  0  0  0  0  0  0  0  0  0  0  0
    0.9142   -1.8946   -0.6409 C   0  0  0  0  0  0  0  0  0  0  0  0
    1.2855   -0.6300   -0.2182 C   0  0  0  0  0  0  0  0  0  0  0  0
    2.6048   -0.0096   -0.0955 C   0  0  0  0  0  0  0  0  0  0  0  0
    2.9657    0.5858    1.1229 C   0  0  0  0  0  0  0  0  0  0  0  0
    4.2236    1.1692    1.2858 C   0  0  0  0  0  0  0  0  0  0  0  0
    4.5033    1.7282    2.4975 O   0  0  0  0  0  0  0  0  0  0  0  0
    5.1572    1.1774    0.2535 C   0  0  0  0  0  0  0  0  0  0  0  0
    4.8242    0.5938   -0.9674 C   0  0  0  0  0  0  0  0  0  0  0  0
    3.5561    0.0125   -1.1263 C   0  0  0  0  0  0  0  0  0  0  0  0
    3.2451   -0.5355   -2.4286 N   0  0  0  0  0  0  0  0  0  0  0  0
    3.7565   -1.6276   -2.7120 O   0  0  0  0  0  0  0  0  0  0  0  0
    2.5437    0.1563   -3.1783 O   0  0  0  0  0  0  0  0  0  0  0  0
    0.1194    0.0369    0.0953 N   0  0  0  0  0  0  0  0  0  0  0  0
   -2.6852    0.2904    1.2870 N   0  0  0  0  0  0  0  0  0  0  0  0
   -4.2410    2.2501    2.5703 H   0  0  0  0  0  0  0  0  0  0  0  0
   -5.7606    1.4315    2.1707 H   0  0  0  0  0  0  0  0  0  0  0  0
   -4.6229    0.6755    3.2993 H   0  0  0  0  0  0  0  0  0  0  0  0
   -5.5461    0.2007   -0.2738 H   0  0  0  0  0  0  0  0  0  0  0  0
   -3.4621   -2.1837   -1.9359 H   0  0  0  0  0  0  0  0  0  0  0  0
   -2.7366   -0.7331   -2.6659 H   0  0  0  0  0  0  0  0  0  0  0  0
   -4.4922   -0.8537   -2.4902 H   0  0  0  0  0  0  0  0  0  0  0  0
   -1.1060   -2.8348   -0.8457 H   0  0  0  0  0  0  0  0  0  0  0  0
    1.5845   -2.6833   -0.9615 H   0  0  0  0  0  0  0  0  0  0  0  0
    2.2793    0.5825    1.9669 H   0  0  0  0  0  0  0  0  0  0  0  0
    5.4142    2.0675    2.4905 H   0  0  0  0  0  0  0  0  0  0  0  0
    6.1361    1.6304    0.3806 H   0  0  0  0  0  0  0  0  0  0  0  0
    5.5407    0.5976   -1.7860 H   0  0  0  0  0  0  0  0  0  0  0  0
    0.0672    1.0044    0.3816 H   0  0  0  0  0  0  0  0  0  0  0  0
   -2.0686    0.4737    2.0659 H   0  0  0  0  0  0  0  0  0  0  0  0
  1  2  1  0
  2  3  2  0
  3  4  1  0
  4  5  1  0
  4  6  2  0
  6  7  1  0
  7  8  2  0
  8  9  1  0
  9 10  2  0
 10 11  1  0
 11 12  1  0
 12 13  2  0
 13 14  1  0
 13 15  1  0
 15 16  2  0
 16 17  1  0
 17 18  1  0
 18 19  2  0
 18 20  1  0
 10 21  1  0
  6 22  1  0
 22  2  1  0
 21  7  1  0
 17 11  2  0
  1 23  1  0
  1 24  1  0
  1 25  1  0
  3 26  1  0
  5 27  1  0
  5 28  1  0
  5 29  1  0
  8 30  1  0
  9 31  1  0
 12 32  1  0
 14 33  1  0
 15 34  1  0
 16 35  1  0
 21 36  1  0
 22 37  1  0
M  CHG  2  18   1  20  -1
M  END
$$$$
