
     RDKit          3D

 44 46  0  0  0  0  0  0  0  0999 V2000
    3.1462   -2.6497   -0.2832 C   0  0  0  0  0  0  0  0  0  0  0  0
    1.9091   -1.9247    0.1088 C   0  0  0  0  0  0  0  0  0  0  0  0
    0.6861   -2.5616    0.4801 C   0  0  0  0  0  0  0  0  0  0  0  0
   -0.2518   -1.5838    0.7345 C   0  0  0  0  0  0  0  0  0  0  0  0
   -1.6854   -1.6913    1.1415 C   0  0  0  0  0  0  0  0  0  0  0  0
   -2.6057   -0.7570    0.3873 C   0  0  0  0  0  0  0  0  0  0  0  0
   -3.2804    0.2582    1.0954 C   0  0  0  0  0  0  0  0  0  0  0  0
   -4.1683    1.1349    0.4455 C   0  0  0  0  0  0  0  0  0  0  0  0
   -4.8852    2.2092    1.1744 C   0  0  0  0  0  0  0  0  0  0  0  0
   -5.6718    3.0019    0.6923 O   0  0  0  0  0  0  0  0  0  0  0  0
   -4.5761    2.2443    2.4830 O   0  0  0  0  0  0  0  0  0  0  0  0
   -4.3968    1.0032   -0.9257 C   0  0  0  0  0  0  0  0  0  0  0  0
   -3.7338    0.0062   -1.6242 C   0  0  0  0  0  0  0  0  0  0  0  0
   -3.9555   -0.1190   -2.9671 O   0  0  0  0  0  0  0  0  0  0  0  0
   -2.8430   -0.8616   -0.9876 C   0  0  0  0  0  0  0  0  0  0  0  0
   -2.2367   -1.7899   -1.7923 O   0  0  0  0  0  0  0  0  0  0  0  0
    0.3781   -0.3775    0.5608 N   0  0  0  0  0  0  0  0  0  0  0  0
    1.6796   -0.5590    0.1614 C   0  0  0  0  0  0  0  0  0  0  0  0
    2.4317    0.5550   -0.0638 N   0  0  0  0  0  0  0  0  0  0  0  0
    3.8921    0.5385    0.1520 C   0  0  0  0  0  0  0  0  0  0  0  0
    4.6378    0.7976   -1.1648 C   0  0  0  0  0  0  0  0  0  0  0  0
    4.3359    2.0739   -1.7536 O   0  0  0  0  0  0  0  0  0  0  0  0
    3.0326    2.5634   -1.4010 C   0  0  0  0  0  0  0  0  0  0  0  0
    2.0014    1.4485   -1.1688 C   0  0  0  0  0  0  0  0  0  0  0  0
    2.9192   -3.6813   -0.5731 H   0  0  0  0  0  0  0  0  0  0  0  0
    3.8516   -2.6852    0.5524 H   0  0  0  0  0  0  0  0  0  0  0  0
    3.6306   -2.1702   -1.1385 H   0  0  0  0  0  0  0  0  0  0  0  0
    0.5164   -3.6298    0.5430 H   0  0  0  0  0  0  0  0  0  0  0  0
   -1.7526   -1.5053    2.2210 H   0  0  0  0  0  0  0  0  0  0  0  0
   -2.0426   -2.7183    0.9917 H   0  0  0  0  0  0  0  0  0  0  0  0
   -3.1171    0.3622    2.1673 H   0  0  0  0  0  0  0  0  0  0  0  0
   -5.1176    2.9858    2.8279 H   0  0  0  0  0  0  0  0  0  0  0  0
   -5.0819    1.6663   -1.4473 H   0  0  0  0  0  0  0  0  0  0  0  0
   -3.4098   -0.8861   -3.2350 H   0  0  0  0  0  0  0  0  0  0  0  0
   -1.4494   -2.1355   -1.3339 H   0  0  0  0  0  0  0  0  0  0  0  0
   -0.0359    0.5310    0.7099 H   0  0  0  0  0  0  0  0  0  0  0  0
    4.2402   -0.3886    0.6149 H   0  0  0  0  0  0  0  0  0  0  0  0
    4.1266    1.3428    0.8604 H   0  0  0  0  0  0  0  0  0  0  0  0
    4.3957    0.0274   -1.9055 H   0  0  0  0  0  0  0  0  0  0  0  0
    5.7191    0.7647   -0.9983 H   0  0  0  0  0  0  0  0  0  0  0  0
    3.1392    3.1814   -0.5017 H   0  0  0  0  0  0  0  0  0  0  0  0
    2.7002    3.2209   -2.2106 H   0  0  0  0  0  0  0  0  0  0  0  0
    1.0311    1.8996   -0.9328 H   0  0  0  0  0  0  0  0  0  0  0  0
    1.8967    0.8586   -2.0884 H   0  0  0  0  0  0  0  0  0  0  0  0
  1  2  1  0
  2  3  1  0
  3  4  2  0
  4  5  1  0
  5  6  1  0
  6  7  1  0
  7  8  2  0
  8  9  1  0
  9 10  2  0
  9 11  1  0
  8 12  1  0
 12 13  2  0
 13 14  1  0
 13 15  1  0
 15 16  1  0
  4 17  1  0
 17 18  1  0
 18 19  1  0
 19 20  1  0
 20 21  1  0
 21 22  1  0
 22 23  1  0
 23 24  1  0
 18  2  2  0
 24 19  1  0
 15  6  2  0
  1 25  1  0
  1 26  1  0
  1 27  1  0
  3 28  1  0
  5 29  1  0
  5 30  1  0
  7 31  1  0
 11 32  1  0
 12 33  1  0
 14 34  1  0
 16 35  1  0
 17 36  1  0
 20 37  1  0
 20 38  1  0
 21 39  1  0
 21 40  1  0
 23 41  1  0
 23 42  1  0
 24 43  1  0
 24 44  1  0
M  END
$$$$
