
     RDKit          3D

 35 36  0  0  0  0  0  0  0  0999 V2000
   -2.7454   -0.3474    2.6362 C   0  0  0  0  0  0  0  0  0  0  0  0
   -3.3903   -0.6631    1.4098 O   0  0  0  0  0  0  0  0  0  0  0  0
   -2.7533   -0.3706    0.2712 C   0  0  0  0  0  0  0  0  0  0  0  0
   -1.5394    0.2703    0.1955 N   0  0  0  0  0  0  0  0  0  0  0  0
   -1.1465    0.3978   -1.1170 C   0  0  0  0  0  0  0  0  0  0  0  0
    0.1476    1.0358   -1.5097 C   0  0  0  0  0  0  0  0  0  0  0  0
    1.3332    0.5506   -0.7066 C   0  0  0  0  0  0  0  0  0  0  0  0
    2.0017    1.4541    0.1428 C   0  0  0  0  0  0  0  0  0  0  0  0
    3.1286    1.0611    0.8881 C   0  0  0  0  0  0  0  0  0  0  0  0
    3.7736    2.0686    1.7634 C   0  0  0  0  0  0  0  0  0  0  0  0
    3.3865    3.2107    1.9297 O   0  0  0  0  0  0  0  0  0  0  0  0
    4.8660    1.5995    2.3888 O   0  0  0  0  0  0  0  0  0  0  0  0
    3.6066   -0.2469    0.7896 C   0  0  0  0  0  0  0  0  0  0  0  0
    2.9484   -1.1385   -0.0438 C   0  0  0  0  0  0  0  0  0  0  0  0
    3.4132   -2.4208   -0.1362 O   0  0  0  0  0  0  0  0  0  0  0  0
    1.8222   -0.7579   -0.7786 C   0  0  0  0  0  0  0  0  0  0  0  0
    1.2519   -1.7376   -1.5475 O   0  0  0  0  0  0  0  0  0  0  0  0
   -2.1514   -0.1384   -1.8955 C   0  0  0  0  0  0  0  0  0  0  0  0
   -3.1634   -0.6285   -1.0259 C   0  0  0  0  0  0  0  0  0  0  0  0
   -4.4302   -1.2943   -1.4260 C   0  0  0  0  0  0  0  0  0  0  0  0
   -1.7925   -0.8795    2.7266 H   0  0  0  0  0  0  0  0  0  0  0  0
   -2.5967    0.7332    2.7328 H   0  0  0  0  0  0  0  0  0  0  0  0
   -3.3945   -0.6740    3.4540 H   0  0  0  0  0  0  0  0  0  0  0  0
   -0.9971    0.5835    0.9879 H   0  0  0  0  0  0  0  0  0  0  0  0
    0.3522    0.8492   -2.5718 H   0  0  0  0  0  0  0  0  0  0  0  0
    0.0401    2.1238   -1.4131 H   0  0  0  0  0  0  0  0  0  0  0  0
    1.6509    2.4835    0.2227 H   0  0  0  0  0  0  0  0  0  0  0  0
    5.1883    2.3588    2.9178 H   0  0  0  0  0  0  0  0  0  0  0  0
    4.4761   -0.5781    1.3492 H   0  0  0  0  0  0  0  0  0  0  0  0
    2.8155   -2.8525   -0.7802 H   0  0  0  0  0  0  0  0  0  0  0  0
    0.3422   -1.4713   -1.7730 H   0  0  0  0  0  0  0  0  0  0  0  0
   -2.1621   -0.1771   -2.9783 H   0  0  0  0  0  0  0  0  0  0  0  0
   -4.4803   -2.3047   -1.0076 H   0  0  0  0  0  0  0  0  0  0  0  0
   -4.5090   -1.3741   -2.5149 H   0  0  0  0  0  0  0  0  0  0  0  0
   -5.2926   -0.7252   -1.0643 H   0  0  0  0  0  0  0  0  0  0  0  0
  1  2  1  0
  2  3  1  0
  3  4  1  0
  4  5  1  0
  5  6  1  0
  6  7  1  0
  7  8  1  0
  8  9  2  0
  9 10  1  0
 10 11  2  0
 10 12  1  0
  9 13  1  0
 13 14  2  0
 14 15  1  0
 14 16  1  0
 16 17  1  0
  5 18  2  0
 18 19  1  0
 19 20  1  0
 19  3  2  0
 16  7  2  0
  1 21  1  0
  1 22  1  0
  1 23  1  0
  4 24  1  0
  6 25  1  0
  6 26  1  0
  8 27  1  0
 12 28  1  0
 13 29  1  0
 15 30  1  0
 17 31  1  0
 18 32  1  0
 20 33  1  0
 20 34  1  0
 20 35  1  0
M  END
$$$$
