
     RDKit          3D

 50 53  0  0  0  0  0  0  0  0999 V2000
    3.4729    1.2479    1.2315 C   0  0  0  0  0  0  0  0  0  0  0  0
    4.2423    0.6347    0.1480 N   0  0  0  0  0  0  0  0  0  0  0  0
    3.9192   -0.7813   -0.1163 C   0  0  0  0  0  0  0  0  0  0  0  0
    3.0455   -0.9238   -1.3690 C   0  0  0  0  0  0  0  0  0  0  0  0
    1.6891   -0.4012   -1.1274 N   0  0  0  0  0  0  0  0  0  0  0  0
    0.9269   -1.2668   -0.6593 N   0  0  0  0  0  0  0  0  0  0  0  0
   -0.2468   -0.6416   -0.4599 N   0  0  0  0  0  0  0  0  0  0  0  0
   -1.4173   -1.4056   -0.3258 C   0  0  0  0  0  0  0  0  0  0  0  0
   -1.4000   -2.7712   -0.0455 C   0  0  0  0  0  0  0  0  0  0  0  0
   -2.5936   -3.4804    0.1371 C   0  0  0  0  0  0  0  0  0  0  0  0
   -3.8328   -2.8607    0.0773 C   0  0  0  0  0  0  0  0  0  0  0  0
   -4.9301   -3.6054    0.2502 N   0  0  0  0  0  0  0  0  0  0  0  0
   -6.1080   -2.9743    0.1845 C   0  0  0  0  0  0  0  0  0  0  0  0
   -6.2900   -1.6688   -0.0270 N   0  0  0  0  0  0  0  0  0  0  0  0
   -5.1693   -0.9294   -0.1822 C   0  0  0  0  0  0  0  0  0  0  0  0
   -5.4369    0.5037   -0.3802 C   0  0  0  0  0  0  0  0  0  0  0  0
   -5.0792    1.4527    0.5943 C   0  0  0  0  0  0  0  0  0  0  0  0
   -5.3374    2.8123    0.4018 C   0  0  0  0  0  0  0  0  0  0  0  0
   -5.9647    3.2421   -0.7661 C   0  0  0  0  0  0  0  0  0  0  0  0
   -6.3373    2.3104   -1.7325 C   0  0  0  0  0  0  0  0  0  0  0  0
   -7.1175    2.8408   -3.1717 Cl  0  0  0  0  0  0  0  0  0  0  0  0
   -6.0814    0.9523   -1.5444 C   0  0  0  0  0  0  0  0  0  0  0  0
   -3.8763   -1.4816   -0.1568 C   0  0  0  0  0  0  0  0  0  0  0  0
   -2.6620   -0.7669   -0.3539 C   0  0  0  0  0  0  0  0  0  0  0  0
    5.6159    0.9289    0.2051 C   0  0  0  0  0  0  0  0  0  0  0  0
    6.4389    0.6187   -0.8817 C   0  0  0  0  0  0  0  0  0  0  0  0
    7.7991    0.9228   -0.8406 C   0  0  0  0  0  0  0  0  0  0  0  0
    8.3182    1.5422    0.2845 C   0  0  0  0  0  0  0  0  0  0  0  0
    7.4466    1.8355    1.3152 C   0  0  0  0  0  0  0  0  0  0  0  0
    6.1254    1.5483    1.2932 N   0  0  0  0  0  0  0  0  0  0  0  0
    3.6216    2.3337    1.2595 H   0  0  0  0  0  0  0  0  0  0  0  0
    2.4010    1.0855    1.0749 H   0  0  0  0  0  0  0  0  0  0  0  0
    3.7343    0.8203    2.2068 H   0  0  0  0  0  0  0  0  0  0  0  0
    3.4070   -1.2200    0.7501 H   0  0  0  0  0  0  0  0  0  0  0  0
    4.8240   -1.3860   -0.2585 H   0  0  0  0  0  0  0  0  0  0  0  0
    3.0022   -1.9778   -1.6720 H   0  0  0  0  0  0  0  0  0  0  0  0
    3.4846   -0.3676   -2.2046 H   0  0  0  0  0  0  0  0  0  0  0  0
   -0.3435    0.2395   -0.9540 H   0  0  0  0  0  0  0  0  0  0  0  0
   -0.4577   -3.3084    0.0301 H   0  0  0  0  0  0  0  0  0  0  0  0
   -2.5484   -4.5492    0.3360 H   0  0  0  0  0  0  0  0  0  0  0  0
   -6.9977   -3.5802    0.3174 H   0  0  0  0  0  0  0  0  0  0  0  0
   -4.6040    1.1310    1.5200 H   0  0  0  0  0  0  0  0  0  0  0  0
   -5.0566    3.5331    1.1660 H   0  0  0  0  0  0  0  0  0  0  0  0
   -6.1678    4.2996   -0.9130 H   0  0  0  0  0  0  0  0  0  0  0  0
   -6.3872    0.2333   -2.3018 H   0  0  0  0  0  0  0  0  0  0  0  0
   -2.6947    0.3045   -0.5399 H   0  0  0  0  0  0  0  0  0  0  0  0
    6.0224    0.1623   -1.7728 H   0  0  0  0  0  0  0  0  0  0  0  0
    8.4389    0.6858   -1.6853 H   0  0  0  0  0  0  0  0  0  0  0  0
    9.3687    1.7983    0.3538 H   0  0  0  0  0  0  0  0  0  0  0  0
    7.7937    2.3283    2.2185 H   0  0  0  0  0  0  0  0  0  0  0  0
  1  2  1  0
  2  3  1  0
  3  4  1  0
  4  5  1  0
  5  6  2  0
  6  7  1  0
  7  8  1  0
  8  9  1  0
  9 10  2  0
 10 11  1  0
 11 12  2  0
 12 13  1  0
 13 14  2  0
 14 15  1  0
 15 16  1  0
 16 17  2  0
 17 18  1  0
 18 19  2  0
 19 20  1  0
 20 21  1  0
 20 22  2  0
 15 23  2  0
 23 24  1  0
  2 25  1  0
 25 26  2  0
 26 27  1  0
 27 28  2  0
 28 29  1  0
 29 30  2  0
 24  8  2  0
 30 25  1  0
 23 11  1  0
 22 16  1  0
  1 31  1  0
  1 32  1  0
  1 33  1  0
  3 34  1  0
  3 35  1  0
  4 36  1  0
  4 37  1  0
  7 38  1  0
  9 39  1  0
 10 40  1  0
 13 41  1  0
 17 42  1  0
 18 43  1  0
 19 44  1  0
 22 45  1  0
 24 46  1  0
 26 47  1  0
 27 48  1  0
 28 49  1  0
 29 50  1  0
M  END
$$$$
