
     RDKit          3D

 52 55  0  0  0  0  0  0  0  0999 V2000
    5.0665   -1.4064    0.9097 C   0  0  0  0  0  0  0  0  0  0  0  0
    5.8917   -0.4989    0.0078 C   0  0  0  0  0  0  0  0  0  0  0  0
    5.7402    0.9000    0.4196 N   0  0  0  0  0  0  0  0  0  0  0  0
    6.8017    1.4433    1.2639 C   0  0  0  0  0  0  0  0  0  0  0  0
    4.9101    1.7617   -0.2361 C   0  0  0  0  0  0  0  0  0  0  0  0
    4.8894    3.1420   -0.3095 C   0  0  0  0  0  0  0  0  0  0  0  0
    3.7998    3.5277   -1.1293 C   0  0  0  0  0  0  0  0  0  0  0  0
    3.1537    2.3741   -1.5237 C   0  0  0  0  0  0  0  0  0  0  0  0
    1.9442    2.1609   -2.3663 C   0  0  0  0  0  0  0  0  0  0  0  0
    0.8421    1.7032   -1.5094 N   0  0  0  0  0  0  0  0  0  0  0  0
    0.3608    0.6160   -1.8784 N   0  0  0  0  0  0  0  0  0  0  0  0
   -0.5902    0.3272   -0.9710 N   0  0  0  0  0  0  0  0  0  0  0  0
   -1.5869   -0.6086   -1.2898 C   0  0  0  0  0  0  0  0  0  0  0  0
   -1.4476   -1.5401   -2.3184 C   0  0  0  0  0  0  0  0  0  0  0  0
   -2.4348   -2.5067   -2.5486 C   0  0  0  0  0  0  0  0  0  0  0  0
   -3.5768   -2.5909   -1.7653 C   0  0  0  0  0  0  0  0  0  0  0  0
   -4.4745   -3.5451   -2.0363 N   0  0  0  0  0  0  0  0  0  0  0  0
   -5.5574   -3.5992   -1.2513 C   0  0  0  0  0  0  0  0  0  0  0  0
   -5.8292   -2.7893   -0.2239 N   0  0  0  0  0  0  0  0  0  0  0  0
   -4.9165   -1.8248    0.0274 C   0  0  0  0  0  0  0  0  0  0  0  0
   -5.2746   -0.9443    1.1498 C   0  0  0  0  0  0  0  0  0  0  0  0
   -5.7060    0.3747    0.9251 C   0  0  0  0  0  0  0  0  0  0  0  0
   -6.0299    1.2119    1.9949 C   0  0  0  0  0  0  0  0  0  0  0  0
   -5.9316    0.7404    3.3043 C   0  0  0  0  0  0  0  0  0  0  0  0
   -5.5183   -0.5693    3.5451 C   0  0  0  0  0  0  0  0  0  0  0  0
   -5.1964   -1.4068    2.4749 C   0  0  0  0  0  0  0  0  0  0  0  0
   -3.7336   -1.6754   -0.7176 C   0  0  0  0  0  0  0  0  0  0  0  0
   -2.7235   -0.7041   -0.4789 C   0  0  0  0  0  0  0  0  0  0  0  0
    3.8303    1.3164   -0.9606 N   0  0  0  0  0  0  0  0  0  0  0  0
    4.0007   -1.1618    0.8553 H   0  0  0  0  0  0  0  0  0  0  0  0
    5.1922   -2.4527    0.6115 H   0  0  0  0  0  0  0  0  0  0  0  0
    5.3768   -1.3122    1.9560 H   0  0  0  0  0  0  0  0  0  0  0  0
    5.6037   -0.6455   -1.0401 H   0  0  0  0  0  0  0  0  0  0  0  0
    6.9459   -0.7988    0.0657 H   0  0  0  0  0  0  0  0  0  0  0  0
    7.5711    1.9300    0.6522 H   0  0  0  0  0  0  0  0  0  0  0  0
    7.2831    0.6543    1.8555 H   0  0  0  0  0  0  0  0  0  0  0  0
    6.3994    2.1743    1.9771 H   0  0  0  0  0  0  0  0  0  0  0  0
    5.5922    3.8111    0.1675 H   0  0  0  0  0  0  0  0  0  0  0  0
    3.5133    4.5393   -1.3885 H   0  0  0  0  0  0  0  0  0  0  0  0
    2.1726    1.4478   -3.1702 H   0  0  0  0  0  0  0  0  0  0  0  0
    1.6468    3.1008   -2.8439 H   0  0  0  0  0  0  0  0  0  0  0  0
   -0.8841    1.1160   -0.4054 H   0  0  0  0  0  0  0  0  0  0  0  0
   -0.5673   -1.5315   -2.9556 H   0  0  0  0  0  0  0  0  0  0  0  0
   -2.2998   -3.2190   -3.3605 H   0  0  0  0  0  0  0  0  0  0  0  0
   -6.2831   -4.3764   -1.4683 H   0  0  0  0  0  0  0  0  0  0  0  0
   -5.7984    0.7523   -0.0923 H   0  0  0  0  0  0  0  0  0  0  0  0
   -6.3656    2.2296    1.8065 H   0  0  0  0  0  0  0  0  0  0  0  0
   -6.1858    1.3909    4.1379 H   0  0  0  0  0  0  0  0  0  0  0  0
   -5.4523   -0.9405    4.5657 H   0  0  0  0  0  0  0  0  0  0  0  0
   -4.8832   -2.4308    2.6750 H   0  0  0  0  0  0  0  0  0  0  0  0
   -2.8299   -0.0172    0.3590 H   0  0  0  0  0  0  0  0  0  0  0  0
    3.5489    0.3504   -1.0346 H   0  0  0  0  0  0  0  0  0  0  0  0
  1  2  1  0
  2  3  1  0
  3  4  1  0
  3  5  1  0
  5  6  2  0
  6  7  1  0
  7  8  2  0
  8  9  1  0
  9 10  1  0
 10 11  2  0
 11 12  1  0
 12 13  1  0
 13 14  1  0
 14 15  2  0
 15 16  1  0
 16 17  2  0
 17 18  1  0
 18 19  2  0
 19 20  1  0
 20 21  1  0
 21 22  2  0
 22 23  1  0
 23 24  2  0
 24 25  1  0
 25 26  2  0
 20 27  2  0
 27 28  1  0
  8 29  1  0
 29  5  1  0
 28 13  2  0
 27 16  1  0
 26 21  1  0
  1 30  1  0
  1 31  1  0
  1 32  1  0
  2 33  1  0
  2 34  1  0
  4 35  1  0
  4 36  1  0
  4 37  1  0
  6 38  1  0
  7 39  1  0
  9 40  1  0
  9 41  1  0
 12 42  1  0
 14 43  1  0
 15 44  1  0
 18 45  1  0
 22 46  1  0
 23 47  1  0
 24 48  1  0
 25 49  1  0
 26 50  1  0
 28 51  1  0
 29 52  1  0
M  END
$$$$
