
     RDKit          3D

 41 43  0  0  0  0  0  0  0  0999 V2000
    3.2206   -2.5023    0.7555 C   0  0  0  0  0  0  0  0  0  0  0  0
    2.5737   -1.5556    1.7603 C   0  0  0  0  0  0  0  0  0  0  0  0
    1.7293   -0.5437    1.0975 N   0  0  0  0  0  0  0  0  0  0  0  0
    2.4552    0.5197    0.5011 C   0  0  0  0  0  0  0  0  0  0  0  0
    3.2632    1.3621    1.2796 C   0  0  0  0  0  0  0  0  0  0  0  0
    3.9763    2.4155    0.7001 C   0  0  0  0  0  0  0  0  0  0  0  0
    3.8939    2.6425   -0.6714 C   0  0  0  0  0  0  0  0  0  0  0  0
    3.0987    1.8182   -1.4629 C   0  0  0  0  0  0  0  0  0  0  0  0
    2.3858    0.7672   -0.8803 C   0  0  0  0  0  0  0  0  0  0  0  0
    0.4317   -0.8486    0.7889 C   0  0  0  0  0  0  0  0  0  0  0  0
   -0.3130   -2.0052    0.8928 C   0  0  0  0  0  0  0  0  0  0  0  0
   -1.6406   -1.7342    0.4464 C   0  0  0  0  0  0  0  0  0  0  0  0
   -2.7554   -2.7175    0.3977 C   0  0  0  0  0  0  0  0  0  0  0  0
   -1.6823   -0.3914    0.0938 C   0  0  0  0  0  0  0  0  0  0  0  0
   -2.7638    0.4383   -0.4340 C   0  0  0  0  0  0  0  0  0  0  0  0
   -3.4971    0.0235   -1.5521 C   0  0  0  0  0  0  0  0  0  0  0  0
   -4.5255    0.8195   -2.0621 C   0  0  0  0  0  0  0  0  0  0  0  0
   -4.8298    2.0378   -1.4577 C   0  0  0  0  0  0  0  0  0  0  0  0
   -4.1069    2.4608   -0.3439 C   0  0  0  0  0  0  0  0  0  0  0  0
   -3.0777    1.6651    0.1654 C   0  0  0  0  0  0  0  0  0  0  0  0
   -0.4277    0.1220    0.3339 N   0  0  0  0  0  0  0  0  0  0  0  0
    2.4712   -3.0146    0.1441 H   0  0  0  0  0  0  0  0  0  0  0  0
    3.8071   -3.2632    1.2802 H   0  0  0  0  0  0  0  0  0  0  0  0
    3.8947   -1.9664    0.0796 H   0  0  0  0  0  0  0  0  0  0  0  0
    1.9777   -2.1373    2.4752 H   0  0  0  0  0  0  0  0  0  0  0  0
    3.3586   -1.0876    2.3666 H   0  0  0  0  0  0  0  0  0  0  0  0
    3.3205    1.2187    2.3554 H   0  0  0  0  0  0  0  0  0  0  0  0
    4.5910    3.0602    1.3226 H   0  0  0  0  0  0  0  0  0  0  0  0
    4.4490    3.4606   -1.1228 H   0  0  0  0  0  0  0  0  0  0  0  0
    3.0354    1.9863   -2.5347 H   0  0  0  0  0  0  0  0  0  0  0  0
    1.7885    0.1188   -1.5178 H   0  0  0  0  0  0  0  0  0  0  0  0
    0.0511   -2.9607    1.2448 H   0  0  0  0  0  0  0  0  0  0  0  0
   -2.5379   -3.5881    1.0251 H   0  0  0  0  0  0  0  0  0  0  0  0
   -2.9092   -3.0683   -0.6275 H   0  0  0  0  0  0  0  0  0  0  0  0
   -3.6877   -2.2719    0.7590 H   0  0  0  0  0  0  0  0  0  0  0  0
   -3.2628   -0.9186   -2.0415 H   0  0  0  0  0  0  0  0  0  0  0  0
   -5.0860    0.4882   -2.9321 H   0  0  0  0  0  0  0  0  0  0  0  0
   -5.6308    2.6564   -1.8537 H   0  0  0  0  0  0  0  0  0  0  0  0
   -4.3460    3.4080    0.1323 H   0  0  0  0  0  0  0  0  0  0  0  0
   -2.5342    2.0030    1.0445 H   0  0  0  0  0  0  0  0  0  0  0  0
   -0.1585    1.0826    0.1829 H   0  0  0  0  0  0  0  0  0  0  0  0
  1  2  1  0
  2  3  1  0
  3  4  1  0
  4  5  2  0
  5  6  1  0
  6  7  2  0
  7  8  1  0
  8  9  2  0
  3 10  1  0
 10 11  2  0
 11 12  1  0
 12 13  1  0
 12 14  2  0
 14 15  1  0
 15 16  2  0
 16 17  1  0
 17 18  2  0
 18 19  1  0
 19 20  2  0
 14 21  1  0
  9  4  1  0
 21 10  1  0
 20 15  1  0
  1 22  1  0
  1 23  1  0
  1 24  1  0
  2 25  1  0
  2 26  1  0
  5 27  1  0
  6 28  1  0
  7 29  1  0
  8 30  1  0
  9 31  1  0
 11 32  1  0
 13 33  1  0
 13 34  1  0
 13 35  1  0
 16 36  1  0
 17 37  1  0
 18 38  1  0
 19 39  1  0
 20 40  1  0
 21 41  1  0
M  END
$$$$
