
     RDKit          3D

 36 38  0  0  0  0  0  0  0  0999 V2000
    5.8966    1.8360    2.0716 C   0  0  0  0  0  0  0  0  0  0  0  0
    4.5373    1.3054    1.9587 N   0  0  0  0  0  0  0  0  0  0  0  0
    4.2688    0.9824    0.7872 N   0  0  0  0  0  0  0  0  0  0  0  0
    3.0123    0.5028    0.8216 N   0  0  0  0  0  0  0  0  0  0  0  0
    2.2706    0.4411   -0.3692 C   0  0  0  0  0  0  0  0  0  0  0  0
    2.8610    0.5127   -1.6302 C   0  0  0  0  0  0  0  0  0  0  0  0
    2.0914    0.3725   -2.7914 C   0  0  0  0  0  0  0  0  0  0  0  0
    0.7252    0.1401   -2.7433 C   0  0  0  0  0  0  0  0  0  0  0  0
    0.0591    0.0046   -3.8949 N   0  0  0  0  0  0  0  0  0  0  0  0
   -1.2526   -0.2432   -3.8128 C   0  0  0  0  0  0  0  0  0  0  0  0
   -1.9615   -0.3577   -2.6870 N   0  0  0  0  0  0  0  0  0  0  0  0
   -1.2758   -0.1986   -1.5331 C   0  0  0  0  0  0  0  0  0  0  0  0
   -2.1271   -0.3053   -0.3361 C   0  0  0  0  0  0  0  0  0  0  0  0
   -2.3244    0.7917    0.5197 C   0  0  0  0  0  0  0  0  0  0  0  0
   -3.1453    0.6885    1.6464 C   0  0  0  0  0  0  0  0  0  0  0  0
   -3.7965   -0.5092    1.9347 C   0  0  0  0  0  0  0  0  0  0  0  0
   -4.5718   -0.4918    3.0615 O   0  0  0  0  0  0  0  0  0  0  0  0
   -3.6246   -1.6092    1.0853 C   0  0  0  0  0  0  0  0  0  0  0  0
   -4.2959   -2.8823    1.3547 N   0  0  0  0  0  0  0  0  0  0  0  0
   -5.0828   -2.9205    2.3151 O   0  0  0  0  0  0  0  0  0  0  0  0
   -4.0389   -3.8465    0.6215 O   0  0  0  0  0  0  0  0  0  0  0  0
   -2.7965   -1.5067   -0.0454 C   0  0  0  0  0  0  0  0  0  0  0  0
    0.1089    0.0452   -1.4899 C   0  0  0  0  0  0  0  0  0  0  0  0
    0.8974    0.1770   -0.3125 C   0  0  0  0  0  0  0  0  0  0  0  0
    6.6367    1.0877    1.7692 H   0  0  0  0  0  0  0  0  0  0  0  0
    6.0926    2.1068    3.1131 H   0  0  0  0  0  0  0  0  0  0  0  0
    6.0197    2.7342    1.4573 H   0  0  0  0  0  0  0  0  0  0  0  0
    2.4940    0.7397    1.6603 H   0  0  0  0  0  0  0  0  0  0  0  0
    3.9320    0.6732   -1.7308 H   0  0  0  0  0  0  0  0  0  0  0  0
    2.5812    0.4371   -3.7609 H   0  0  0  0  0  0  0  0  0  0  0  0
   -1.7896   -0.3612   -4.7478 H   0  0  0  0  0  0  0  0  0  0  0  0
   -1.8468    1.7469    0.3040 H   0  0  0  0  0  0  0  0  0  0  0  0
   -3.2853    1.5504    2.2956 H   0  0  0  0  0  0  0  0  0  0  0  0
   -5.0327   -1.3516    3.1642 H   0  0  0  0  0  0  0  0  0  0  0  0
   -2.6667   -2.3542   -0.7191 H   0  0  0  0  0  0  0  0  0  0  0  0
    0.4299    0.0619    0.6628 H   0  0  0  0  0  0  0  0  0  0  0  0
  1  2  1  0
  2  3  2  0
  3  4  1  0
  4  5  1  0
  5  6  1  0
  6  7  2  0
  7  8  1  0
  8  9  2  0
  9 10  1  0
 10 11  2  0
 11 12  1  0
 12 13  1  0
 13 14  1  0
 14 15  2  0
 15 16  1  0
 16 17  1  0
 16 18  2  0
 18 19  1  0
 19 20  2  0
 19 21  1  0
 18 22  1  0
 12 23  2  0
 23 24  1  0
 24  5  2  0
 23  8  1  0
 22 13  2  0
  1 25  1  0
  1 26  1  0
  1 27  1  0
  4 28  1  0
  6 29  1  0
  7 30  1  0
 10 31  1  0
 14 32  1  0
 15 33  1  0
 17 34  1  0
 22 35  1  0
 24 36  1  0
M  CHG  2  19   1  21  -1
M  END
$$$$
