
     RDKit          3D

 34 36  0  0  0  0  0  0  0  0999 V2000
    1.9907    1.8352    2.0690 C   0  0  0  0  0  0  0  0  0  0  0  0
    0.9925    1.1229    1.2270 C   0  0  0  0  0  0  0  0  0  0  0  0
   -0.4196    1.3042    1.2790 C   0  0  0  0  0  0  0  0  0  0  0  0
   -1.0108    0.4654    0.3519 C   0  0  0  0  0  0  0  0  0  0  0  0
   -2.4190    0.2563    0.0123 C   0  0  0  0  0  0  0  0  0  0  0  0
   -2.8127   -0.0331   -1.3024 C   0  0  0  0  0  0  0  0  0  0  0  0
   -4.1601   -0.2346   -1.6135 C   0  0  0  0  0  0  0  0  0  0  0  0
   -5.1192   -0.1458   -0.6131 C   0  0  0  0  0  0  0  0  0  0  0  0
   -6.4212   -0.3502   -0.9606 O   0  0  0  0  0  0  0  0  0  0  0  0
   -4.7549    0.1447    0.6963 C   0  0  0  0  0  0  0  0  0  0  0  0
   -3.4060    0.3469    1.0049 C   0  0  0  0  0  0  0  0  0  0  0  0
    0.0176   -0.2268   -0.2454 N   0  0  0  0  0  0  0  0  0  0  0  0
    1.2390    0.1571    0.2613 C   0  0  0  0  0  0  0  0  0  0  0  0
    2.4884   -0.4221   -0.2276 C   0  0  0  0  0  0  0  0  0  0  0  0
    3.5232    0.4033   -0.6827 C   0  0  0  0  0  0  0  0  0  0  0  0
    4.7143   -0.1496   -1.1588 C   0  0  0  0  0  0  0  0  0  0  0  0
    4.8806   -1.5331   -1.1825 C   0  0  0  0  0  0  0  0  0  0  0  0
    3.8574   -2.3644   -0.7303 C   0  0  0  0  0  0  0  0  0  0  0  0
    2.6656   -1.8115   -0.2554 C   0  0  0  0  0  0  0  0  0  0  0  0
    2.4799    2.6264    1.4924 H   0  0  0  0  0  0  0  0  0  0  0  0
    2.7568    1.1452    2.4367 H   0  0  0  0  0  0  0  0  0  0  0  0
    1.5123    2.2959    2.9395 H   0  0  0  0  0  0  0  0  0  0  0  0
   -0.9486    1.9914    1.9274 H   0  0  0  0  0  0  0  0  0  0  0  0
   -2.0817   -0.0842   -2.1048 H   0  0  0  0  0  0  0  0  0  0  0  0
   -4.4590   -0.4535   -2.6346 H   0  0  0  0  0  0  0  0  0  0  0  0
   -6.9727   -0.2456   -0.1681 H   0  0  0  0  0  0  0  0  0  0  0  0
   -5.4954    0.2166    1.4862 H   0  0  0  0  0  0  0  0  0  0  0  0
   -3.1290    0.5647    2.0338 H   0  0  0  0  0  0  0  0  0  0  0  0
   -0.1023   -0.9266   -0.9636 H   0  0  0  0  0  0  0  0  0  0  0  0
    3.4029    1.4840   -0.6798 H   0  0  0  0  0  0  0  0  0  0  0  0
    5.5102    0.5007   -1.5119 H   0  0  0  0  0  0  0  0  0  0  0  0
    5.8083   -1.9631   -1.5510 H   0  0  0  0  0  0  0  0  0  0  0  0
    3.9883   -3.4433   -0.7416 H   0  0  0  0  0  0  0  0  0  0  0  0
    1.8843   -2.4734    0.1101 H   0  0  0  0  0  0  0  0  0  0  0  0
  1  2  1  0
  2  3  1  0
  3  4  2  0
  4  5  1  0
  5  6  1  0
  6  7  2  0
  7  8  1  0
  8  9  1  0
  8 10  2  0
 10 11  1  0
  4 12  1  0
 12 13  1  0
 13 14  1  0
 14 15  2  0
 15 16  1  0
 16 17  2  0
 17 18  1  0
 18 19  2  0
 13  2  2  0
 19 14  1  0
 11  5  2  0
  1 20  1  0
  1 21  1  0
  1 22  1  0
  3 23  1  0
  6 24  1  0
  7 25  1  0
  9 26  1  0
 10 27  1  0
 11 28  1  0
 12 29  1  0
 15 30  1  0
 16 31  1  0
 17 32  1  0
 18 33  1  0
 19 34  1  0
M  END
$$$$
