
     RDKit          3D

 43 45  0  0  0  0  0  0  0  0999 V2000
   -4.4285    2.5176    1.8527 O   0  0  0  0  0  0  0  0  0  0  0  0
   -5.0176    1.7082    1.1601 C   0  0  0  0  0  0  0  0  0  0  0  0
   -6.3335    1.8211    0.9150 O   0  0  0  0  0  0  0  0  0  0  0  0
   -4.4056    0.5265    0.5083 C   0  0  0  0  0  0  0  0  0  0  0  0
   -5.1582   -0.3565   -0.2776 C   0  0  0  0  0  0  0  0  0  0  0  0
   -4.5262   -1.4423   -0.8626 C   0  0  0  0  0  0  0  0  0  0  0  0
   -5.2487   -2.3109   -1.6271 O   0  0  0  0  0  0  0  0  0  0  0  0
   -3.1659   -1.6506   -0.6706 C   0  0  0  0  0  0  0  0  0  0  0  0
   -2.5697   -2.7434   -1.2483 O   0  0  0  0  0  0  0  0  0  0  0  0
   -2.3888   -0.7840    0.1099 C   0  0  0  0  0  0  0  0  0  0  0  0
   -1.0054   -1.0572    0.2284 N   0  0  0  0  0  0  0  0  0  0  0  0
   -0.2206   -0.1844   -0.6855 C   0  0  0  0  0  0  0  0  0  0  0  0
    1.2866   -0.2875   -0.3877 C   0  0  0  0  0  0  0  0  0  0  0  0
    1.6084    0.0739    1.0017 N   0  0  0  0  0  0  0  0  0  0  0  0
    2.7916    0.6764    1.4106 C   0  0  0  0  0  0  0  0  0  0  0  0
    2.9312    1.2200    2.5025 O   0  0  0  0  0  0  0  0  0  0  0  0
    3.9541    0.6713    0.4955 C   0  0  0  0  0  0  0  0  0  0  0  0
    4.4532   -0.5307   -0.0233 C   0  0  0  0  0  0  0  0  0  0  0  0
    5.5684   -0.5096   -0.8618 C   0  0  0  0  0  0  0  0  0  0  0  0
    6.1822    0.7050   -1.1624 C   0  0  0  0  0  0  0  0  0  0  0  0
    7.2502    0.6998   -1.9732 F   0  0  0  0  0  0  0  0  0  0  0  0
    5.6999    1.8997   -0.6267 C   0  0  0  0  0  0  0  0  0  0  0  0
    6.4661    3.3966   -0.9934 Cl  0  0  0  0  0  0  0  0  0  0  0  0
    4.5869    1.8872    0.2123 C   0  0  0  0  0  0  0  0  0  0  0  0
    0.4952    0.0233    1.9555 C   0  0  0  0  0  0  0  0  0  0  0  0
   -0.5091   -1.0956    1.6332 C   0  0  0  0  0  0  0  0  0  0  0  0
   -3.0263    0.3130    0.6985 C   0  0  0  0  0  0  0  0  0  0  0  0
   -6.6018    2.6294    1.3998 H   0  0  0  0  0  0  0  0  0  0  0  0
   -6.2223   -0.2076   -0.4356 H   0  0  0  0  0  0  0  0  0  0  0  0
   -4.6010   -2.9857   -1.9154 H   0  0  0  0  0  0  0  0  0  0  0  0
   -1.6536   -2.6931   -0.8992 H   0  0  0  0  0  0  0  0  0  0  0  0
   -0.4014   -0.4893   -1.7233 H   0  0  0  0  0  0  0  0  0  0  0  0
   -0.5281    0.8653   -0.5844 H   0  0  0  0  0  0  0  0  0  0  0  0
    1.8410    0.3553   -1.0784 H   0  0  0  0  0  0  0  0  0  0  0  0
    1.6197   -1.3215   -0.5328 H   0  0  0  0  0  0  0  0  0  0  0  0
    3.9913   -1.4797    0.2384 H   0  0  0  0  0  0  0  0  0  0  0  0
    5.9719   -1.4295   -1.2749 H   0  0  0  0  0  0  0  0  0  0  0  0
    4.2123    2.8101    0.6493 H   0  0  0  0  0  0  0  0  0  0  0  0
    0.8871   -0.1122    2.9698 H   0  0  0  0  0  0  0  0  0  0  0  0
    0.0010    1.0017    1.9230 H   0  0  0  0  0  0  0  0  0  0  0  0
   -1.3264   -1.0879    2.3649 H   0  0  0  0  0  0  0  0  0  0  0  0
   -0.0008   -2.0605    1.7555 H   0  0  0  0  0  0  0  0  0  0  0  0
   -2.4588    1.0185    1.3006 H   0  0  0  0  0  0  0  0  0  0  0  0
  1  2  2  0
  2  3  1  0
  2  4  1  0
  4  5  1  0
  5  6  2  0
  6  7  1  0
  6  8  1  0
  8  9  1  0
  8 10  2  0
 10 11  1  0
 11 12  1  0
 12 13  1  0
 13 14  1  0
 14 15  1  0
 15 16  2  0
 15 17  1  0
 17 18  1  0
 18 19  2  0
 19 20  1  0
 20 21  1  0
 20 22  2  0
 22 23  1  0
 22 24  1  0
 14 25  1  0
 25 26  1  0
 10 27  1  0
 27  4  2  0
 26 11  1  0
 24 17  2  0
  3 28  1  0
  5 29  1  0
  7 30  1  0
  9 31  1  0
 12 32  1  0
 12 33  1  0
 13 34  1  0
 13 35  1  0
 18 36  1  0
 19 37  1  0
 24 38  1  0
 25 39  1  0
 25 40  1  0
 26 41  1  0
 26 42  1  0
 27 43  1  0
M  END
$$$$
