
     RDKit          3D

 51 54  0  0  0  0  0  0  0  0999 V2000
   -3.2647   -0.3860   -2.1349 C   0  0  0  0  0  0  0  0  0  0  0  0
   -4.1730   -1.0376   -1.1887 N   0  0  0  0  0  0  0  0  0  0  0  0
   -3.7998   -2.4095   -0.7888 C   0  0  0  0  0  0  0  0  0  0  0  0
   -2.8186   -2.4542    0.3900 C   0  0  0  0  0  0  0  0  0  0  0  0
   -1.4597   -2.1033   -0.0641 N   0  0  0  0  0  0  0  0  0  0  0  0
   -1.0620   -1.0339    0.4316 N   0  0  0  0  0  0  0  0  0  0  0  0
    0.1682   -0.8307   -0.0733 N   0  0  0  0  0  0  0  0  0  0  0  0
    1.0076    0.1108    0.5446 C   0  0  0  0  0  0  0  0  0  0  0  0
    0.5284    1.0960    1.4072 C   0  0  0  0  0  0  0  0  0  0  0  0
    1.3931    2.0514    1.9548 C   0  0  0  0  0  0  0  0  0  0  0  0
    2.7450    2.0805    1.6471 C   0  0  0  0  0  0  0  0  0  0  0  0
    3.5113    3.0161    2.2180 N   0  0  0  0  0  0  0  0  0  0  0  0
    4.8105    3.0139    1.8993 C   0  0  0  0  0  0  0  0  0  0  0  0
    5.4122    2.1706    1.0573 N   0  0  0  0  0  0  0  0  0  0  0  0
    4.6192    1.2429    0.4762 C   0  0  0  0  0  0  0  0  0  0  0  0
    5.3366    0.3667   -0.4637 C   0  0  0  0  0  0  0  0  0  0  0  0
    6.3257   -0.5181   -0.0003 C   0  0  0  0  0  0  0  0  0  0  0  0
    7.0143   -1.3543   -0.8826 C   0  0  0  0  0  0  0  0  0  0  0  0
    6.7287   -1.3121   -2.2459 C   0  0  0  0  0  0  0  0  0  0  0  0
    5.7617   -0.4291   -2.7204 C   0  0  0  0  0  0  0  0  0  0  0  0
    5.4110   -0.3723   -4.4041 Cl  0  0  0  0  0  0  0  0  0  0  0  0
    5.0720    0.4080   -1.8429 C   0  0  0  0  0  0  0  0  0  0  0  0
    3.2437    1.1307    0.7478 C   0  0  0  0  0  0  0  0  0  0  0  0
    2.3637    0.1542    0.2028 C   0  0  0  0  0  0  0  0  0  0  0  0
   -5.0230   -0.2573   -0.4013 C   0  0  0  0  0  0  0  0  0  0  0  0
   -5.1088    1.1407   -0.5534 C   0  0  0  0  0  0  0  0  0  0  0  0
   -5.9644    1.9339    0.2243 C   0  0  0  0  0  0  0  0  0  0  0  0
   -6.7770    1.3456    1.1830 C   0  0  0  0  0  0  0  0  0  0  0  0
   -6.7290   -0.0311    1.3489 C   0  0  0  0  0  0  0  0  0  0  0  0
   -7.7374   -0.7809    2.5276 Cl  0  0  0  0  0  0  0  0  0  0  0  0
   -5.8725   -0.8183    0.5689 C   0  0  0  0  0  0  0  0  0  0  0  0
   -3.8266    0.1854   -2.8822 H   0  0  0  0  0  0  0  0  0  0  0  0
   -2.5635    0.2798   -1.6205 H   0  0  0  0  0  0  0  0  0  0  0  0
   -2.6732   -1.1199   -2.6937 H   0  0  0  0  0  0  0  0  0  0  0  0
   -4.6958   -2.9931   -0.5507 H   0  0  0  0  0  0  0  0  0  0  0  0
   -3.3577   -2.9317   -1.6476 H   0  0  0  0  0  0  0  0  0  0  0  0
   -3.1525   -1.8186    1.2193 H   0  0  0  0  0  0  0  0  0  0  0  0
   -2.7776   -3.4807    0.7718 H   0  0  0  0  0  0  0  0  0  0  0  0
    0.6220   -1.6644   -0.4301 H   0  0  0  0  0  0  0  0  0  0  0  0
   -0.5261    1.1342    1.6714 H   0  0  0  0  0  0  0  0  0  0  0  0
    0.9921    2.7962    2.6392 H   0  0  0  0  0  0  0  0  0  0  0  0
    5.4321    3.7690    2.3680 H   0  0  0  0  0  0  0  0  0  0  0  0
    6.5664   -0.5508    1.0616 H   0  0  0  0  0  0  0  0  0  0  0  0
    7.7761   -2.0320   -0.5055 H   0  0  0  0  0  0  0  0  0  0  0  0
    7.2673   -1.9611   -2.9313 H   0  0  0  0  0  0  0  0  0  0  0  0
    4.3315    1.1032   -2.2333 H   0  0  0  0  0  0  0  0  0  0  0  0
    2.7501   -0.5875   -0.4927 H   0  0  0  0  0  0  0  0  0  0  0  0
   -4.4994    1.6603   -1.2875 H   0  0  0  0  0  0  0  0  0  0  0  0
   -5.9899    3.0099    0.0726 H   0  0  0  0  0  0  0  0  0  0  0  0
   -7.4412    1.9572    1.7862 H   0  0  0  0  0  0  0  0  0  0  0  0
   -5.8973   -1.8890    0.7363 H   0  0  0  0  0  0  0  0  0  0  0  0
  1  2  1  0
  2  3  1  0
  3  4  1  0
  4  5  1  0
  5  6  2  0
  6  7  1  0
  7  8  1  0
  8  9  1  0
  9 10  2  0
 10 11  1  0
 11 12  2  0
 12 13  1  0
 13 14  2  0
 14 15  1  0
 15 16  1  0
 16 17  2  0
 17 18  1  0
 18 19  2  0
 19 20  1  0
 20 21  1  0
 20 22  2  0
 15 23  2  0
 23 24  1  0
  2 25  1  0
 25 26  2  0
 26 27  1  0
 27 28  2  0
 28 29  1  0
 29 30  1  0
 29 31  2  0
 24  8  2  0
 31 25  1  0
 23 11  1  0
 22 16  1  0
  1 32  1  0
  1 33  1  0
  1 34  1  0
  3 35  1  0
  3 36  1  0
  4 37  1  0
  4 38  1  0
  7 39  1  0
  9 40  1  0
 10 41  1  0
 13 42  1  0
 17 43  1  0
 18 44  1  0
 19 45  1  0
 22 46  1  0
 24 47  1  0
 26 48  1  0
 27 49  1  0
 28 50  1  0
 31 51  1  0
M  END
$$$$
