
     RDKit          3D

 40 41  0  0  0  0  0  0  0  0999 V2000
   -5.0797    0.5982    0.5575 C   0  0  0  0  0  0  0  0  0  0  0  0
   -3.8348    0.0611   -0.1506 N   0  0  0  0  0  0  0  0  0  0  0  0
   -3.7150    0.7420   -1.5055 C   0  0  0  0  0  0  0  0  0  0  0  0
   -4.0189   -1.4431   -0.3565 C   0  0  0  0  0  0  0  0  0  0  0  0
   -2.6065    0.3665    0.7531 C   0  0  0  0  0  0  0  0  0  0  0  0
   -1.2581   -0.1657    0.2268 C   0  0  0  0  0  0  0  0  0  0  0  0
   -1.2593   -1.5999    0.2357 O   0  0  0  0  0  0  0  0  0  0  0  0
   -0.1054    0.3275    1.1167 C   0  0  0  0  0  0  0  0  0  0  0  0
    1.1046   -0.1327    0.5083 O   0  0  0  0  0  0  0  0  0  0  0  0
    2.2948    0.2531    1.0776 C   0  0  0  0  0  0  0  0  0  0  0  0
    2.3994    0.9192    2.2949 C   0  0  0  0  0  0  0  0  0  0  0  0
    3.6626    1.2430    2.7509 C   0  0  0  0  0  0  0  0  0  0  0  0
    4.7984    0.9531    2.0888 N   0  0  0  0  0  0  0  0  0  0  0  0
    4.7053    0.3040    0.9180 C   0  0  0  0  0  0  0  0  0  0  0  0
    5.8736   -0.0035    0.2334 C   0  0  0  0  0  0  0  0  0  0  0  0
    5.8568   -0.6774   -0.9898 C   0  0  0  0  0  0  0  0  0  0  0  0
    4.6450   -1.0564   -1.5499 C   0  0  0  0  0  0  0  0  0  0  0  0
    3.4580   -0.7586   -0.8826 C   0  0  0  0  0  0  0  0  0  0  0  0
    3.4677   -0.0768    0.3575 C   0  0  0  0  0  0  0  0  0  0  0  0
   -5.1811    0.0826    1.5171 H   0  0  0  0  0  0  0  0  0  0  0  0
   -5.9524    0.4049   -0.0735 H   0  0  0  0  0  0  0  0  0  0  0  0
   -4.9521    1.6740    0.7100 H   0  0  0  0  0  0  0  0  0  0  0  0
   -4.6474    0.5835   -2.0560 H   0  0  0  0  0  0  0  0  0  0  0  0
   -2.8820    0.2987   -2.0563 H   0  0  0  0  0  0  0  0  0  0  0  0
   -3.5451    1.8099   -1.3416 H   0  0  0  0  0  0  0  0  0  0  0  0
   -3.2551   -1.8073   -1.0471 H   0  0  0  0  0  0  0  0  0  0  0  0
   -5.0049   -1.6077   -0.8029 H   0  0  0  0  0  0  0  0  0  0  0  0
   -3.9585   -1.9383    0.6165 H   0  0  0  0  0  0  0  0  0  0  0  0
   -2.8329   -0.0845    1.7269 H   0  0  0  0  0  0  0  0  0  0  0  0
   -2.5735    1.4567    0.8635 H   0  0  0  0  0  0  0  0  0  0  0  0
   -1.0765    0.1506   -0.8048 H   0  0  0  0  0  0  0  0  0  0  0  0
   -0.3297   -1.8814    0.0978 H   0  0  0  0  0  0  0  0  0  0  0  0
   -0.1126    1.4224    1.1661 H   0  0  0  0  0  0  0  0  0  0  0  0
   -0.1988   -0.1105    2.1175 H   0  0  0  0  0  0  0  0  0  0  0  0
    1.5488    1.1887    2.9053 H   0  0  0  0  0  0  0  0  0  0  0  0
    3.8037    1.7613    3.6959 H   0  0  0  0  0  0  0  0  0  0  0  0
    6.8278    0.2898    0.6666 H   0  0  0  0  0  0  0  0  0  0  0  0
    6.7918   -0.9026   -1.4971 H   0  0  0  0  0  0  0  0  0  0  0  0
    4.6243   -1.5819   -2.5013 H   0  0  0  0  0  0  0  0  0  0  0  0
    2.5179   -1.0626   -1.3356 H   0  0  0  0  0  0  0  0  0  0  0  0
  1  2  1  0
  2  3  1  0
  2  4  1  0
  2  5  1  0
  5  6  1  0
  6  7  1  0
  6  8  1  0
  8  9  1  0
  9 10  1  0
 10 11  2  0
 11 12  1  0
 12 13  2  0
 13 14  1  0
 14 15  2  0
 15 16  1  0
 16 17  2  0
 17 18  1  0
 18 19  2  0
 19 10  1  0
 19 14  1  0
  1 20  1  0
  1 21  1  0
  1 22  1  0
  3 23  1  0
  3 24  1  0
  3 25  1  0
  4 26  1  0
  4 27  1  0
  4 28  1  0
  5 29  1  0
  5 30  1  0
  6 31  1  0
  7 32  1  0
  8 33  1  0
  8 34  1  0
 11 35  1  0
 12 36  1  0
 15 37  1  0
 16 38  1  0
 17 39  1  0
 18 40  1  0
M  CHG  1   2   1
M  END
$$$$
