
     RDKit          3D

 53 56  0  0  0  0  0  0  0  0999 V2000
    3.8347   -0.7870   -1.2437 C   0  0  0  0  0  0  0  0  0  0  0  0
    4.4991    0.3092   -0.5386 N   0  0  0  0  0  0  0  0  0  0  0  0
    4.1608    1.6649   -1.0063 C   0  0  0  0  0  0  0  0  0  0  0  0
    3.2021    2.3644   -0.0328 C   0  0  0  0  0  0  0  0  0  0  0  0
    1.8085    1.9556   -0.2903 N   0  0  0  0  0  0  0  0  0  0  0  0
    1.4283    1.0574    0.4803 N   0  0  0  0  0  0  0  0  0  0  0  0
    0.1705    0.7619    0.1024 N   0  0  0  0  0  0  0  0  0  0  0  0
   -0.6318   -0.0162    0.9506 C   0  0  0  0  0  0  0  0  0  0  0  0
   -0.1111   -0.7671    2.0036 C   0  0  0  0  0  0  0  0  0  0  0  0
   -0.9429   -1.5768    2.7869 C   0  0  0  0  0  0  0  0  0  0  0  0
   -2.3010   -1.6995    2.5323 C   0  0  0  0  0  0  0  0  0  0  0  0
   -3.0326   -2.4842    3.3317 N   0  0  0  0  0  0  0  0  0  0  0  0
   -4.3370   -2.5832    3.0564 C   0  0  0  0  0  0  0  0  0  0  0  0
   -4.9747   -1.9853    2.0459 N   0  0  0  0  0  0  0  0  0  0  0  0
   -4.2171   -1.2121    1.2359 C   0  0  0  0  0  0  0  0  0  0  0  0
   -4.9778   -0.6313    0.1142 C   0  0  0  0  0  0  0  0  0  0  0  0
   -4.6445   -0.9181   -1.2259 C   0  0  0  0  0  0  0  0  0  0  0  0
   -5.3713   -0.3773   -2.2952 C   0  0  0  0  0  0  0  0  0  0  0  0
   -6.4584    0.4539   -2.0417 C   0  0  0  0  0  0  0  0  0  0  0  0
   -7.1797    0.9685   -3.0756 O   0  0  0  0  0  0  0  0  0  0  0  0
   -6.8030    0.7282   -0.7196 C   0  0  0  0  0  0  0  0  0  0  0  0
   -7.9270    1.5889   -0.4283 N   0  0  0  0  0  0  0  0  0  0  0  0
   -7.7877    2.8001   -0.6547 O   0  0  0  0  0  0  0  0  0  0  0  0
   -8.9238    1.0553    0.0797 O   0  0  0  0  0  0  0  0  0  0  0  0
   -6.0858    0.1942    0.3574 C   0  0  0  0  0  0  0  0  0  0  0  0
   -2.8410   -1.0019    1.4449 C   0  0  0  0  0  0  0  0  0  0  0  0
   -1.9954   -0.1595    0.6685 C   0  0  0  0  0  0  0  0  0  0  0  0
    5.8474    0.0637   -0.2433 C   0  0  0  0  0  0  0  0  0  0  0  0
    6.5669    0.9448    0.5702 C   0  0  0  0  0  0  0  0  0  0  0  0
    7.9078    0.6962    0.8630 C   0  0  0  0  0  0  0  0  0  0  0  0
    8.5103   -0.4428    0.3553 C   0  0  0  0  0  0  0  0  0  0  0  0
    7.7369   -1.2840   -0.4178 C   0  0  0  0  0  0  0  0  0  0  0  0
    6.4383   -1.0555   -0.7177 N   0  0  0  0  0  0  0  0  0  0  0  0
    2.7687   -0.5744   -1.3676 H   0  0  0  0  0  0  0  0  0  0  0  0
    3.9015   -1.7221   -0.6751 H   0  0  0  0  0  0  0  0  0  0  0  0
    4.2577   -0.9364   -2.2442 H   0  0  0  0  0  0  0  0  0  0  0  0
    3.7099    1.6186   -2.0067 H   0  0  0  0  0  0  0  0  0  0  0  0
    5.0574    2.2856   -1.1219 H   0  0  0  0  0  0  0  0  0  0  0  0
    3.4924    2.1950    1.0114 H   0  0  0  0  0  0  0  0  0  0  0  0
    3.2543    3.4449   -0.2085 H   0  0  0  0  0  0  0  0  0  0  0  0
   -0.3003    1.4981   -0.4122 H   0  0  0  0  0  0  0  0  0  0  0  0
    0.9520   -0.7297    2.2359 H   0  0  0  0  0  0  0  0  0  0  0  0
   -0.5095   -2.1316    3.6177 H   0  0  0  0  0  0  0  0  0  0  0  0
   -4.9316   -3.2101    3.7129 H   0  0  0  0  0  0  0  0  0  0  0  0
   -3.8125   -1.5878   -1.4445 H   0  0  0  0  0  0  0  0  0  0  0  0
   -5.0785   -0.6294   -3.3111 H   0  0  0  0  0  0  0  0  0  0  0  0
   -6.7847    0.7070   -3.9241 H   0  0  0  0  0  0  0  0  0  0  0  0
   -6.3878    0.4126    1.3811 H   0  0  0  0  0  0  0  0  0  0  0  0
   -2.4130    0.3981   -0.1656 H   0  0  0  0  0  0  0  0  0  0  0  0
    6.0874    1.8196    0.9950 H   0  0  0  0  0  0  0  0  0  0  0  0
    8.4700    1.3870    1.4815 H   0  0  0  0  0  0  0  0  0  0  0  0
    9.5487   -0.6726    0.5602 H   0  0  0  0  0  0  0  0  0  0  0  0
    8.1504   -2.1979   -0.8368 H   0  0  0  0  0  0  0  0  0  0  0  0
  1  2  1  0
  2  3  1  0
  3  4  1  0
  4  5  1  0
  5  6  2  0
  6  7  1  0
  7  8  1  0
  8  9  1  0
  9 10  2  0
 10 11  1  0
 11 12  2  0
 12 13  1  0
 13 14  2  0
 14 15  1  0
 15 16  1  0
 16 17  1  0
 17 18  2  0
 18 19  1  0
 19 20  1  0
 19 21  2  0
 21 22  1  0
 22 23  2  0
 22 24  1  0
 21 25  1  0
 15 26  2  0
 26 27  1  0
  2 28  1  0
 28 29  2  0
 29 30  1  0
 30 31  2  0
 31 32  1  0
 32 33  2  0
 27  8  2  0
 33 28  1  0
 26 11  1  0
 25 16  2  0
  1 34  1  0
  1 35  1  0
  1 36  1  0
  3 37  1  0
  3 38  1  0
  4 39  1  0
  4 40  1  0
  7 41  1  0
  9 42  1  0
 10 43  1  0
 13 44  1  0
 17 45  1  0
 18 46  1  0
 20 47  1  0
 25 48  1  0
 27 49  1  0
 29 50  1  0
 30 51  1  0
 31 52  1  0
 32 53  1  0
M  CHG  2  22   1  24  -1
M  END
$$$$
