
     RDKit          3D

 35 35  0  0  0  0  0  0  0  0999 V2000
   -5.0037    0.3667    0.7240 C   0  0  0  0  0  0  0  0  0  0  0  0
   -3.7081   -0.1614    1.2658 C   0  0  0  0  0  0  0  0  0  0  0  0
   -3.5712   -0.4343    2.6311 C   0  0  0  0  0  0  0  0  0  0  0  0
   -2.3795   -0.9602    3.1292 C   0  0  0  0  0  0  0  0  0  0  0  0
   -1.3147   -1.2241    2.2668 C   0  0  0  0  0  0  0  0  0  0  0  0
   -1.4334   -0.9565    0.8990 C   0  0  0  0  0  0  0  0  0  0  0  0
   -0.3427   -1.2443   -0.0414 C   0  0  0  0  0  0  0  0  0  0  0  0
    0.9024   -0.7237   -0.0086 C   0  0  0  0  0  0  0  0  0  0  0  0
    1.3086    0.2029    1.0040 C   0  0  0  0  0  0  0  0  0  0  0  0
    1.6842    0.9832    1.7765 N   0  0  0  0  0  0  0  0  0  0  0  0
    1.8902   -1.1110   -1.0424 C   0  0  0  0  0  0  0  0  0  0  0  0
    2.0608   -2.4887   -1.1910 N   0  0  0  0  0  0  0  0  0  0  0  0
    2.5354   -0.1858   -1.8095 C   0  0  0  0  0  0  0  0  0  0  0  0
    3.4384   -0.6115   -2.8409 C   0  0  0  0  0  0  0  0  0  0  0  0
    4.1798   -0.9683   -3.6589 N   0  0  0  0  0  0  0  0  0  0  0  0
    2.3508    1.2809   -1.7065 C   0  0  0  0  0  0  0  0  0  0  0  0
    1.1837    1.7654   -2.2902 N   0  0  0  0  0  0  0  0  0  0  0  0
    3.2842    2.0566   -1.0878 C   0  0  0  0  0  0  0  0  0  0  0  0
    4.4572    1.5024   -0.4959 C   0  0  0  0  0  0  0  0  0  0  0  0
    5.3971    1.0053   -0.0315 N   0  0  0  0  0  0  0  0  0  0  0  0
    3.1150    3.4676   -1.0007 C   0  0  0  0  0  0  0  0  0  0  0  0
    2.9417    4.6142   -0.9486 N   0  0  0  0  0  0  0  0  0  0  0  0
   -2.6389   -0.4421    0.4033 C   0  0  0  0  0  0  0  0  0  0  0  0
   -5.5170    0.9831    1.4695 H   0  0  0  0  0  0  0  0  0  0  0  0
   -5.6573   -0.4642    0.4409 H   0  0  0  0  0  0  0  0  0  0  0  0
   -4.8307    0.9973   -0.1544 H   0  0  0  0  0  0  0  0  0  0  0  0
   -4.3940   -0.2403    3.3162 H   0  0  0  0  0  0  0  0  0  0  0  0
   -2.2816   -1.1684    4.1920 H   0  0  0  0  0  0  0  0  0  0  0  0
   -0.4013   -1.6463    2.6792 H   0  0  0  0  0  0  0  0  0  0  0  0
   -0.6201   -1.9300   -0.8422 H   0  0  0  0  0  0  0  0  0  0  0  0
    1.9163   -3.0233   -0.3342 H   0  0  0  0  0  0  0  0  0  0  0  0
    2.9158   -2.7810   -1.6668 H   0  0  0  0  0  0  0  0  0  0  0  0
    0.8673    2.6903   -1.9946 H   0  0  0  0  0  0  0  0  0  0  0  0
    0.4173    1.1010   -2.3893 H   0  0  0  0  0  0  0  0  0  0  0  0
   -2.7519   -0.2516   -0.6623 H   0  0  0  0  0  0  0  0  0  0  0  0
  1  2  1  0
  2  3  2  0
  3  4  1  0
  4  5  2  0
  5  6  1  0
  6  7  1  0
  7  8  2  3
  8  9  1  0
  9 10  3  0
  8 11  1  0
 11 12  1  0
 11 13  2  3
 13 14  1  0
 14 15  3  0
 13 16  1  0
 16 17  1  0
 16 18  2  3
 18 19  1  0
 19 20  3  0
 18 21  1  0
 21 22  3  0
  6 23  2  0
 23  2  1  0
  1 24  1  0
  1 25  1  0
  1 26  1  0
  3 27  1  0
  4 28  1  0
  5 29  1  0
  7 30  1  0
 12 31  1  0
 12 32  1  0
 17 33  1  0
 17 34  1  0
 23 35  1  0
M  END
$$$$
