
     RDKit          3D

 37 39  0  0  0  0  0  0  0  0999 V2000
   -5.6488    0.4622   -1.1324 C   0  0  0  0  0  0  0  0  0  0  0  0
   -4.3582   -0.1225   -0.6974 C   0  0  0  0  0  0  0  0  0  0  0  0
   -4.0113   -1.4168   -0.3787 C   0  0  0  0  0  0  0  0  0  0  0  0
   -2.6307   -1.4333   -0.0206 C   0  0  0  0  0  0  0  0  0  0  0  0
   -1.8783   -2.6399    0.4149 C   0  0  0  0  0  0  0  0  0  0  0  0
   -2.1689   -0.1298   -0.1450 C   0  0  0  0  0  0  0  0  0  0  0  0
   -0.8732    0.4414    0.0642 C   0  0  0  0  0  0  0  0  0  0  0  0
   -0.5145    1.7226    0.4297 C   0  0  0  0  0  0  0  0  0  0  0  0
    0.9085    1.7907    0.4920 C   0  0  0  0  0  0  0  0  0  0  0  0
    1.7042    2.9889    0.8713 C   0  0  0  0  0  0  0  0  0  0  0  0
    1.3889    0.5336    0.1479 C   0  0  0  0  0  0  0  0  0  0  0  0
    2.7515    0.0204    0.0241 C   0  0  0  0  0  0  0  0  0  0  0  0
    3.6914    0.6844   -0.7727 C   0  0  0  0  0  0  0  0  0  0  0  0
    4.9914    0.1889   -0.8979 C   0  0  0  0  0  0  0  0  0  0  0  0
    5.3623   -0.9744   -0.2260 C   0  0  0  0  0  0  0  0  0  0  0  0
    4.4349   -1.6428    0.5712 C   0  0  0  0  0  0  0  0  0  0  0  0
    3.1344   -1.1482    0.6952 C   0  0  0  0  0  0  0  0  0  0  0  0
    0.2921   -0.2605   -0.1051 N   0  0  0  0  0  0  0  0  0  0  0  0
   -3.2334    0.6462   -0.5405 N   0  0  0  0  0  0  0  0  0  0  0  0
   -5.5469    0.9307   -2.1165 H   0  0  0  0  0  0  0  0  0  0  0  0
   -5.9869    1.2214   -0.4199 H   0  0  0  0  0  0  0  0  0  0  0  0
   -6.4247   -0.3069   -1.2020 H   0  0  0  0  0  0  0  0  0  0  0  0
   -4.6813   -2.2676   -0.3937 H   0  0  0  0  0  0  0  0  0  0  0  0
   -2.5605   -3.4549    0.6782 H   0  0  0  0  0  0  0  0  0  0  0  0
   -1.2662   -2.4232    1.2961 H   0  0  0  0  0  0  0  0  0  0  0  0
   -1.2256   -2.9935   -0.3894 H   0  0  0  0  0  0  0  0  0  0  0  0
   -1.1983    2.5318    0.6503 H   0  0  0  0  0  0  0  0  0  0  0  0
    2.5259    2.7176    1.5418 H   0  0  0  0  0  0  0  0  0  0  0  0
    2.1230    3.4658   -0.0203 H   0  0  0  0  0  0  0  0  0  0  0  0
    1.0813    3.7254    1.3893 H   0  0  0  0  0  0  0  0  0  0  0  0
    3.4126    1.5868   -1.3113 H   0  0  0  0  0  0  0  0  0  0  0  0
    5.7124    0.7111   -1.5213 H   0  0  0  0  0  0  0  0  0  0  0  0
    6.3745   -1.3586   -0.3220 H   0  0  0  0  0  0  0  0  0  0  0  0
    4.7246   -2.5463    1.1012 H   0  0  0  0  0  0  0  0  0  0  0  0
    2.4279   -1.6716    1.3348 H   0  0  0  0  0  0  0  0  0  0  0  0
    0.3435   -1.2189   -0.4162 H   0  0  0  0  0  0  0  0  0  0  0  0
   -3.1780    1.6400   -0.7137 H   0  0  0  0  0  0  0  0  0  0  0  0
  1  2  1  0
  2  3  2  0
  3  4  1  0
  4  5  1  0
  4  6  2  0
  6  7  1  0
  7  8  2  0
  8  9  1  0
  9 10  1  0
  9 11  2  0
 11 12  1  0
 12 13  2  0
 13 14  1  0
 14 15  2  0
 15 16  1  0
 16 17  2  0
 11 18  1  0
  6 19  1  0
 19  2  1  0
 18  7  1  0
 17 12  1  0
  1 20  1  0
  1 21  1  0
  1 22  1  0
  3 23  1  0
  5 24  1  0
  5 25  1  0
  5 26  1  0
  8 27  1  0
 10 28  1  0
 10 29  1  0
 10 30  1  0
 13 31  1  0
 14 32  1  0
 15 33  1  0
 16 34  1  0
 17 35  1  0
 18 36  1  0
 19 37  1  0
M  END
$$$$
