
     RDKit          3D

 50 52  0  0  0  0  0  0  0  0999 V2000
   -7.0452   -1.5079    0.6079 C   0  0  0  0  0  0  0  0  0  0  0  0
   -5.6128   -1.0987    0.2790 C   0  0  0  0  0  0  0  0  0  0  0  0
   -5.3222    0.3025    0.6296 N   0  0  0  0  0  0  0  0  0  0  0  0
   -6.0091    1.2491   -0.2636 C   0  0  0  0  0  0  0  0  0  0  0  0
   -5.8273    2.7123    0.1311 C   0  0  0  0  0  0  0  0  0  0  0  0
   -3.8650    0.5296    0.7405 C   0  0  0  0  0  0  0  0  0  0  0  0
   -3.0406    0.4298   -0.5539 C   0  0  0  0  0  0  0  0  0  0  0  0
   -1.6227    0.6944   -0.2491 N   0  0  0  0  0  0  0  0  0  0  0  0
   -0.9847   -0.3543   -0.0433 N   0  0  0  0  0  0  0  0  0  0  0  0
    0.2722    0.0337    0.2369 N   0  0  0  0  0  0  0  0  0  0  0  0
    1.3173   -0.8972    0.1173 C   0  0  0  0  0  0  0  0  0  0  0  0
    1.1004   -2.2734    0.0622 C   0  0  0  0  0  0  0  0  0  0  0  0
    2.1769   -3.1667   -0.0007 C   0  0  0  0  0  0  0  0  0  0  0  0
    3.4938   -2.7324    0.0181 C   0  0  0  0  0  0  0  0  0  0  0  0
    4.4698   -3.6437   -0.0578 N   0  0  0  0  0  0  0  0  0  0  0  0
    5.7277   -3.1885   -0.0382 C   0  0  0  0  0  0  0  0  0  0  0  0
    6.1000   -1.9103    0.0609 N   0  0  0  0  0  0  0  0  0  0  0  0
    5.1007   -1.0051    0.1543 C   0  0  0  0  0  0  0  0  0  0  0  0
    5.5775    0.3799    0.2925 C   0  0  0  0  0  0  0  0  0  0  0  0
    5.3840    1.1013    1.4843 C   0  0  0  0  0  0  0  0  0  0  0  0
    5.8413    2.4154    1.6109 C   0  0  0  0  0  0  0  0  0  0  0  0
    6.5065    3.0252    0.5489 C   0  0  0  0  0  0  0  0  0  0  0  0
    6.7176    2.3164   -0.6316 C   0  0  0  0  0  0  0  0  0  0  0  0
    7.5446    3.0677   -1.9406 Cl  0  0  0  0  0  0  0  0  0  0  0  0
    6.2626    1.0045   -0.7623 C   0  0  0  0  0  0  0  0  0  0  0  0
    3.7399   -1.3584    0.1209 C   0  0  0  0  0  0  0  0  0  0  0  0
    2.6433   -0.4534    0.1721 C   0  0  0  0  0  0  0  0  0  0  0  0
   -7.2927   -1.2769    1.6494 H   0  0  0  0  0  0  0  0  0  0  0  0
   -7.1641   -2.5876    0.4680 H   0  0  0  0  0  0  0  0  0  0  0  0
   -7.7737   -1.0137   -0.0410 H   0  0  0  0  0  0  0  0  0  0  0  0
   -5.4078   -1.2959   -0.7801 H   0  0  0  0  0  0  0  0  0  0  0  0
   -4.9592   -1.7630    0.8588 H   0  0  0  0  0  0  0  0  0  0  0  0
   -7.0875    1.0594   -0.2335 H   0  0  0  0  0  0  0  0  0  0  0  0
   -5.6968    1.1111   -1.3056 H   0  0  0  0  0  0  0  0  0  0  0  0
   -4.8008    3.0550   -0.0295 H   0  0  0  0  0  0  0  0  0  0  0  0
   -6.4810    3.3454   -0.4783 H   0  0  0  0  0  0  0  0  0  0  0  0
   -6.0906    2.8738    1.1816 H   0  0  0  0  0  0  0  0  0  0  0  0
   -3.6877    1.5081    1.2042 H   0  0  0  0  0  0  0  0  0  0  0  0
   -3.4593   -0.1794    1.4755 H   0  0  0  0  0  0  0  0  0  0  0  0
   -3.1628   -0.5509   -1.0299 H   0  0  0  0  0  0  0  0  0  0  0  0
   -3.3682    1.1839   -1.2766 H   0  0  0  0  0  0  0  0  0  0  0  0
    0.4926    0.9848   -0.0384 H   0  0  0  0  0  0  0  0  0  0  0  0
    0.0895   -2.6744    0.0615 H   0  0  0  0  0  0  0  0  0  0  0  0
    1.9752   -4.2342   -0.0621 H   0  0  0  0  0  0  0  0  0  0  0  0
    6.5184   -3.9276   -0.1076 H   0  0  0  0  0  0  0  0  0  0  0  0
    4.8818    0.6328    2.3297 H   0  0  0  0  0  0  0  0  0  0  0  0
    5.6861    2.9585    2.5401 H   0  0  0  0  0  0  0  0  0  0  0  0
    6.8650    4.0462    0.6500 H   0  0  0  0  0  0  0  0  0  0  0  0
    6.4438    0.4576   -1.6855 H   0  0  0  0  0  0  0  0  0  0  0  0
    2.8333    0.6151    0.2479 H   0  0  0  0  0  0  0  0  0  0  0  0
  1  2  1  0
  2  3  1  0
  3  4  1  0
  4  5  1  0
  3  6  1  0
  6  7  1  0
  7  8  1  0
  8  9  2  0
  9 10  1  0
 10 11  1  0
 11 12  1  0
 12 13  2  0
 13 14  1  0
 14 15  2  0
 15 16  1  0
 16 17  2  0
 17 18  1  0
 18 19  1  0
 19 20  2  0
 20 21  1  0
 21 22  2  0
 22 23  1  0
 23 24  1  0
 23 25  2  0
 18 26  2  0
 26 27  1  0
 27 11  2  0
 26 14  1  0
 25 19  1  0
  1 28  1  0
  1 29  1  0
  1 30  1  0
  2 31  1  0
  2 32  1  0
  4 33  1  0
  4 34  1  0
  5 35  1  0
  5 36  1  0
  5 37  1  0
  6 38  1  0
  6 39  1  0
  7 40  1  0
  7 41  1  0
 10 42  1  0
 12 43  1  0
 13 44  1  0
 16 45  1  0
 20 46  1  0
 21 47  1  0
 22 48  1  0
 25 49  1  0
 27 50  1  0
M  END
$$$$
