
     RDKit          3D

 26 27  0  0  0  0  0  0  0  0999 V2000
   -4.1719   -2.5381   -0.5408 C   0  0  0  0  0  0  0  0  0  0  0  0
   -3.7068   -1.4716    0.3470 N   0  0  0  0  0  0  0  0  0  0  0  0
   -2.6219   -0.9994   -0.0384 N   0  0  0  0  0  0  0  0  0  0  0  0
   -2.3095   -0.0339    0.8449 N   0  0  0  0  0  0  0  0  0  0  0  0
   -0.9756    0.3947    0.9455 C   0  0  0  0  0  0  0  0  0  0  0  0
   -0.5965    1.2033    2.0145 C   0  0  0  0  0  0  0  0  0  0  0  0
    0.7075    1.7000    2.1046 C   0  0  0  0  0  0  0  0  0  0  0  0
    1.6657    1.4326    1.1386 C   0  0  0  0  0  0  0  0  0  0  0  0
    2.8832    1.9578    1.3107 N   0  0  0  0  0  0  0  0  0  0  0  0
    3.7988    1.7106    0.3699 C   0  0  0  0  0  0  0  0  0  0  0  0
    3.6084    0.9817   -0.7248 N   0  0  0  0  0  0  0  0  0  0  0  0
    2.3662    0.4545   -0.8783 C   0  0  0  0  0  0  0  0  0  0  0  0
    2.1960   -0.3810   -2.1171 C   0  0  0  0  0  0  0  0  0  0  0  0
    1.2959   -1.1588   -2.3760 O   0  0  0  0  0  0  0  0  0  0  0  0
    3.1972   -0.1967   -3.0057 O   0  0  0  0  0  0  0  0  0  0  0  0
    1.3136    0.6443    0.0370 C   0  0  0  0  0  0  0  0  0  0  0  0
   -0.0215    0.1470   -0.0496 C   0  0  0  0  0  0  0  0  0  0  0  0
   -4.3305   -2.1622   -1.5570 H   0  0  0  0  0  0  0  0  0  0  0  0
   -3.4556   -3.3661   -0.5693 H   0  0  0  0  0  0  0  0  0  0  0  0
   -5.1246   -2.9262   -0.1691 H   0  0  0  0  0  0  0  0  0  0  0  0
   -2.8259   -0.0792    1.7168 H   0  0  0  0  0  0  0  0  0  0  0  0
   -1.3107    1.4619    2.7926 H   0  0  0  0  0  0  0  0  0  0  0  0
    0.9777    2.3234    2.9551 H   0  0  0  0  0  0  0  0  0  0  0  0
    4.7832    2.1427    0.5137 H   0  0  0  0  0  0  0  0  0  0  0  0
    2.9824   -0.7983   -3.7464 H   0  0  0  0  0  0  0  0  0  0  0  0
   -0.3248   -0.4428   -0.9114 H   0  0  0  0  0  0  0  0  0  0  0  0
  1  2  1  0
  2  3  2  0
  3  4  1  0
  4  5  1  0
  5  6  1  0
  6  7  2  0
  7  8  1  0
  8  9  2  0
  9 10  1  0
 10 11  2  0
 11 12  1  0
 12 13  1  0
 13 14  2  0
 13 15  1  0
 12 16  2  0
 16 17  1  0
 17  5  2  0
 16  8  1  0
  1 18  1  0
  1 19  1  0
  1 20  1  0
  4 21  1  0
  6 22  1  0
  7 23  1  0
 10 24  1  0
 15 25  1  0
 17 26  1  0
M  END
$$$$
