
     RDKit          3D

 44 44  0  0  0  0  0  0  0  0999 V2000
    5.4783    2.6188   -0.0518 C   0  0  0  0  0  0  0  0  0  0  0  0
    4.3169    1.6780    0.0991 C   0  0  0  0  0  0  0  0  0  0  0  0
    3.7639    1.4324    1.3627 C   0  0  0  0  0  0  0  0  0  0  0  0
    2.6711    0.5656    1.5208 C   0  0  0  0  0  0  0  0  0  0  0  0
    2.1392    0.3072    2.9018 C   0  0  0  0  0  0  0  0  0  0  0  0
    2.1007   -0.0108    0.3746 C   0  0  0  0  0  0  0  0  0  0  0  0
    1.0177   -0.8477    0.4797 O   0  0  0  0  0  0  0  0  0  0  0  0
   -0.2019   -0.0984    0.6067 C   0  0  0  0  0  0  0  0  0  0  0  0
   -1.2780   -0.8700   -0.1724 C   0  0  0  0  0  0  0  0  0  0  0  0
   -1.3814   -2.1925    0.3735 O   0  0  0  0  0  0  0  0  0  0  0  0
   -2.6366   -0.1490   -0.0655 C   0  0  0  0  0  0  0  0  0  0  0  0
   -3.7567   -0.7208   -0.9832 N   0  0  0  0  0  0  0  0  0  0  0  0
   -3.4426   -0.4879   -2.4529 C   0  0  0  0  0  0  0  0  0  0  0  0
   -3.9694   -2.2168   -0.7425 C   0  0  0  0  0  0  0  0  0  0  0  0
   -5.0569    0.0061   -0.6408 C   0  0  0  0  0  0  0  0  0  0  0  0
    2.6556    0.1977   -0.8995 C   0  0  0  0  0  0  0  0  0  0  0  0
    2.0817   -0.4522   -2.1264 C   0  0  0  0  0  0  0  0  0  0  0  0
    3.7514    1.0638   -1.0258 C   0  0  0  0  0  0  0  0  0  0  0  0
    6.1257    2.3052   -0.8782 H   0  0  0  0  0  0  0  0  0  0  0  0
    6.0938    2.6298    0.8550 H   0  0  0  0  0  0  0  0  0  0  0  0
    5.1180    3.6347   -0.2483 H   0  0  0  0  0  0  0  0  0  0  0  0
    4.2040    1.9099    2.2374 H   0  0  0  0  0  0  0  0  0  0  0  0
    1.3422    1.0193    3.1372 H   0  0  0  0  0  0  0  0  0  0  0  0
    1.7491   -0.7136    2.9901 H   0  0  0  0  0  0  0  0  0  0  0  0
    2.9325    0.4085    3.6534 H   0  0  0  0  0  0  0  0  0  0  0  0
   -0.4626   -0.0597    1.6703 H   0  0  0  0  0  0  0  0  0  0  0  0
   -0.1109    0.9244    0.2175 H   0  0  0  0  0  0  0  0  0  0  0  0
   -0.9586   -0.9741   -1.2133 H   0  0  0  0  0  0  0  0  0  0  0  0
   -0.4604   -2.5134    0.4913 H   0  0  0  0  0  0  0  0  0  0  0  0
   -2.5381    0.9092   -0.3321 H   0  0  0  0  0  0  0  0  0  0  0  0
   -3.0219   -0.2297    0.9583 H   0  0  0  0  0  0  0  0  0  0  0  0
   -3.2883    0.5841   -2.6083 H   0  0  0  0  0  0  0  0  0  0  0  0
   -4.2903   -0.8442   -3.0453 H   0  0  0  0  0  0  0  0  0  0  0  0
   -2.5427   -1.0475   -2.7199 H   0  0  0  0  0  0  0  0  0  0  0  0
   -4.0621   -2.3841    0.3343 H   0  0  0  0  0  0  0  0  0  0  0  0
   -3.1284   -2.7690   -1.1707 H   0  0  0  0  0  0  0  0  0  0  0  0
   -4.8902   -2.5176   -1.2508 H   0  0  0  0  0  0  0  0  0  0  0  0
   -5.3138   -0.2140    0.4002 H   0  0  0  0  0  0  0  0  0  0  0  0
   -4.8990    1.0809   -0.7760 H   0  0  0  0  0  0  0  0  0  0  0  0
   -5.8444   -0.3509   -1.3122 H   0  0  0  0  0  0  0  0  0  0  0  0
    1.8179   -1.4973   -1.9240 H   0  0  0  0  0  0  0  0  0  0  0  0
    2.8066   -0.4588   -2.9511 H   0  0  0  0  0  0  0  0  0  0  0  0
    1.1876    0.0899   -2.4555 H   0  0  0  0  0  0  0  0  0  0  0  0
    4.1811    1.2545   -2.0089 H   0  0  0  0  0  0  0  0  0  0  0  0
  1  2  1  0
  2  3  2  0
  3  4  1  0
  4  5  1  0
  4  6  2  0
  6  7  1  0
  7  8  1  0
  8  9  1  0
  9 10  1  0
  9 11  1  0
 11 12  1  0
 12 13  1  0
 12 14  1  0
 12 15  1  0
  6 16  1  0
 16 17  1  0
 16 18  2  0
 18  2  1  0
  1 19  1  0
  1 20  1  0
  1 21  1  0
  3 22  1  0
  5 23  1  0
  5 24  1  0
  5 25  1  0
  8 26  1  0
  8 27  1  0
  9 28  1  0
 10 29  1  0
 11 30  1  0
 11 31  1  0
 13 32  1  0
 13 33  1  0
 13 34  1  0
 14 35  1  0
 14 36  1  0
 14 37  1  0
 15 38  1  0
 15 39  1  0
 15 40  1  0
 17 41  1  0
 17 42  1  0
 17 43  1  0
 18 44  1  0
M  CHG  1  12   1
M  END
$$$$
