
     RDKit          3D

 63 66  0  0  0  0  0  0  0  0999 V2000
   -4.4305    1.3860   -2.5698 C   0  0  0  0  0  0  0  0  0  0  0  0
   -4.0516    0.7548   -1.3056 N   0  0  0  0  0  0  0  0  0  0  0  0
   -2.5959    0.8452   -1.0650 C   0  0  0  0  0  0  0  0  0  0  0  0
   -1.6770    0.0001   -1.9679 C   0  0  0  0  0  0  0  0  0  0  0  0
   -0.2616    0.3062   -1.6849 N   0  0  0  0  0  0  0  0  0  0  0  0
    0.1273   -0.2080   -0.6189 N   0  0  0  0  0  0  0  0  0  0  0  0
    1.4167    0.1512   -0.4917 N   0  0  0  0  0  0  0  0  0  0  0  0
    2.2002   -0.4514    0.5049 C   0  0  0  0  0  0  0  0  0  0  0  0
    1.6435   -1.0594    1.6297 C   0  0  0  0  0  0  0  0  0  0  0  0
    2.4584   -1.5760    2.6447 C   0  0  0  0  0  0  0  0  0  0  0  0
    3.8415   -1.5058    2.5813 C   0  0  0  0  0  0  0  0  0  0  0  0
    4.5512   -2.0079    3.5977 N   0  0  0  0  0  0  0  0  0  0  0  0
    5.8818   -1.9103    3.5161 C   0  0  0  0  0  0  0  0  0  0  0  0
    6.5689   -1.3752    2.5030 N   0  0  0  0  0  0  0  0  0  0  0  0
    5.8370   -0.8894    1.4746 C   0  0  0  0  0  0  0  0  0  0  0  0
    6.6673   -0.3682    0.3728 C   0  0  0  0  0  0  0  0  0  0  0  0
    6.6028   -0.9246   -0.9165 C   0  0  0  0  0  0  0  0  0  0  0  0
    7.4150   -0.4486   -1.9510 C   0  0  0  0  0  0  0  0  0  0  0  0
    8.3187    0.5862   -1.7168 C   0  0  0  0  0  0  0  0  0  0  0  0
    9.0612    0.9633   -2.8022 O   0  0  0  0  0  0  0  0  0  0  0  0
    8.4082    1.1457   -0.4361 C   0  0  0  0  0  0  0  0  0  0  0  0
    9.3493    2.2311   -0.1520 N   0  0  0  0  0  0  0  0  0  0  0  0
   10.1309    2.5620   -1.0593 O   0  0  0  0  0  0  0  0  0  0  0  0
    9.3068    2.7654    0.9651 O   0  0  0  0  0  0  0  0  0  0  0  0
    7.5890    0.6691    0.6030 C   0  0  0  0  0  0  0  0  0  0  0  0
    4.4297   -0.9036    1.4613 C   0  0  0  0  0  0  0  0  0  0  0  0
    3.5950   -0.3567    0.4451 C   0  0  0  0  0  0  0  0  0  0  0  0
   -4.5449   -0.6335   -1.2002 C   0  0  0  0  0  0  0  0  0  0  0  0
   -6.0664   -0.7537   -0.9115 C   0  0  0  0  0  0  0  0  0  0  0  0
   -6.4147   -0.8453    0.5215 N   0  0  0  0  0  0  0  0  0  0  0  0
   -6.0682    0.3754    1.2854 C   0  0  0  0  0  0  0  0  0  0  0  0
   -6.9781    1.5790    0.9881 C   0  0  0  0  0  0  0  0  0  0  0  0
   -8.3567    1.2569    1.2242 O   0  0  0  0  0  0  0  0  0  0  0  0
   -8.7560    0.1277    0.4380 C   0  0  0  0  0  0  0  0  0  0  0  0
   -7.8628   -1.0974    0.7066 C   0  0  0  0  0  0  0  0  0  0  0  0
   -4.0620    2.4185   -2.6068 H   0  0  0  0  0  0  0  0  0  0  0  0
   -4.0426    0.8520   -3.4462 H   0  0  0  0  0  0  0  0  0  0  0  0
   -5.5202    1.4518   -2.6699 H   0  0  0  0  0  0  0  0  0  0  0  0
   -2.2936    1.8987   -1.1293 H   0  0  0  0  0  0  0  0  0  0  0  0
   -2.4118    0.5703   -0.0171 H   0  0  0  0  0  0  0  0  0  0  0  0
   -1.8571    0.2340   -3.0226 H   0  0  0  0  0  0  0  0  0  0  0  0
   -1.8658   -1.0721   -1.8353 H   0  0  0  0  0  0  0  0  0  0  0  0
    1.8804    0.3965   -1.3581 H   0  0  0  0  0  0  0  0  0  0  0  0
    0.5638   -1.1258    1.7426 H   0  0  0  0  0  0  0  0  0  0  0  0
    1.9919   -2.0366    3.5142 H   0  0  0  0  0  0  0  0  0  0  0  0
    6.4541   -2.3058    4.3482 H   0  0  0  0  0  0  0  0  0  0  0  0
    5.9270   -1.7533   -1.1223 H   0  0  0  0  0  0  0  0  0  0  0  0
    7.3500   -0.8963   -2.9408 H   0  0  0  0  0  0  0  0  0  0  0  0
    9.6978    1.6687   -2.5472 H   0  0  0  0  0  0  0  0  0  0  0  0
    7.6631    1.0873    1.6076 H   0  0  0  0  0  0  0  0  0  0  0  0
    4.0455    0.1565   -0.4013 H   0  0  0  0  0  0  0  0  0  0  0  0
   -4.0083   -1.1700   -0.4054 H   0  0  0  0  0  0  0  0  0  0  0  0
   -4.3232   -1.1755   -2.1295 H   0  0  0  0  0  0  0  0  0  0  0  0
   -6.3856   -1.6930   -1.3838 H   0  0  0  0  0  0  0  0  0  0  0  0
   -6.6266    0.0368   -1.4209 H   0  0  0  0  0  0  0  0  0  0  0  0
   -6.1739    0.1257    2.3504 H   0  0  0  0  0  0  0  0  0  0  0  0
   -5.0162    0.6465    1.1578 H   0  0  0  0  0  0  0  0  0  0  0  0
   -6.7211    2.4081    1.6555 H   0  0  0  0  0  0  0  0  0  0  0  0
   -6.8619    1.9386   -0.0412 H   0  0  0  0  0  0  0  0  0  0  0  0
   -8.7524    0.4089   -0.6214 H   0  0  0  0  0  0  0  0  0  0  0  0
   -9.7908   -0.1088    0.7093 H   0  0  0  0  0  0  0  0  0  0  0  0
   -8.0095   -1.4069    1.7503 H   0  0  0  0  0  0  0  0  0  0  0  0
   -8.1872   -1.9450    0.0918 H   0  0  0  0  0  0  0  0  0  0  0  0
  1  2  1  0
  2  3  1  0
  3  4  1  0
  4  5  1  0
  5  6  2  0
  6  7  1  0
  7  8  1  0
  8  9  1  0
  9 10  2  0
 10 11  1  0
 11 12  2  0
 12 13  1  0
 13 14  2  0
 14 15  1  0
 15 16  1  0
 16 17  1  0
 17 18  2  0
 18 19  1  0
 19 20  1  0
 19 21  2  0
 21 22  1  0
 22 23  2  0
 22 24  1  0
 21 25  1  0
 15 26  2  0
 26 27  1  0
  2 28  1  0
 28 29  1  0
 29 30  1  0
 30 31  1  0
 31 32  1  0
 32 33  1  0
 33 34  1  0
 34 35  1  0
 27  8  2  0
 35 30  1  0
 26 11  1  0
 25 16  2  0
  1 36  1  0
  1 37  1  0
  1 38  1  0
  3 39  1  0
  3 40  1  0
  4 41  1  0
  4 42  1  0
  7 43  1  0
  9 44  1  0
 10 45  1  0
 13 46  1  0
 17 47  1  0
 18 48  1  0
 20 49  1  0
 25 50  1  0
 27 51  1  0
 28 52  1  0
 28 53  1  0
 29 54  1  0
 29 55  1  0
 31 56  1  0
 31 57  1  0
 32 58  1  0
 32 59  1  0
 34 60  1  0
 34 61  1  0
 35 62  1  0
 35 63  1  0
M  CHG  2  22   1  24  -1
M  END
$$$$
