
     RDKit          3D

 57 59  0  0  0  0  0  0  0  0999 V2000
    4.1464    3.1059   -0.8403 C   0  0  0  0  0  0  0  0  0  0  0  0
    3.4769    1.7253   -0.7757 N   0  0  0  0  0  0  0  0  0  0  0  0
    4.5540    0.6777   -1.0263 C   0  0  0  0  0  0  0  0  0  0  0  0
    2.4302    1.6696   -1.8775 C   0  0  0  0  0  0  0  0  0  0  0  0
    2.8482    1.5850    0.6337 C   0  0  0  0  0  0  0  0  0  0  0  0
    2.4566    0.1793    1.1356 C   0  0  0  0  0  0  0  0  0  0  0  0
    3.6066   -0.6709    1.2499 O   0  0  0  0  0  0  0  0  0  0  0  0
    1.3713   -0.5301    0.3344 C   0  0  0  0  0  0  0  0  0  0  0  0
    0.8652   -1.5907    1.1516 O   0  0  0  0  0  0  0  0  0  0  0  0
   -0.4072   -2.0957    0.6942 C   0  0  0  0  0  0  0  0  0  0  0  0
   -0.4767   -3.5575    1.1460 C   0  0  0  0  0  0  0  0  0  0  0  0
   -1.7793   -4.2526    0.7593 C   0  0  0  0  0  0  0  0  0  0  0  0
   -2.9109   -3.2961    0.3933 C   0  0  0  0  0  0  0  0  0  0  0  0
   -2.9390   -2.0509    1.2730 C   0  0  0  0  0  0  0  0  0  0  0  0
   -1.5882   -1.3097    1.3332 C   0  0  2  0  0  0  0  0  0  0  0  0
   -1.6785    0.0909    0.8635 N   0  0  0  0  0  0  0  0  0  0  0  0
   -2.1749    1.0999    1.8262 C   0  0  0  0  0  0  0  0  0  0  0  0
   -2.4089    2.3968    1.0405 C   0  0  0  0  0  0  0  0  0  0  0  0
   -2.6167    1.8445   -0.3287 C   0  0  0  0  0  0  0  0  0  0  0  0
   -3.1304    2.5019   -1.4376 C   0  0  0  0  0  0  0  0  0  0  0  0
   -3.2266    1.7969   -2.6317 C   0  0  0  0  0  0  0  0  0  0  0  0
   -2.7973    0.4667   -2.6954 C   0  0  0  0  0  0  0  0  0  0  0  0
   -2.2688   -0.1752   -1.5662 C   0  0  0  0  0  0  0  0  0  0  0  0
   -2.1855    0.5114   -0.3688 C   0  0  0  0  0  0  0  0  0  0  0  0
    4.5810    3.2382   -1.8356 H   0  0  0  0  0  0  0  0  0  0  0  0
    3.3818    3.8660   -0.6530 H   0  0  0  0  0  0  0  0  0  0  0  0
    4.9309    3.1484   -0.0786 H   0  0  0  0  0  0  0  0  0  0  0  0
    4.0802   -0.3009   -1.1314 H   0  0  0  0  0  0  0  0  0  0  0  0
    5.2652    0.7014   -0.1982 H   0  0  0  0  0  0  0  0  0  0  0  0
    5.0642    0.9296   -1.9618 H   0  0  0  0  0  0  0  0  0  0  0  0
    2.0182    0.6625   -1.9362 H   0  0  0  0  0  0  0  0  0  0  0  0
    2.9175    1.9183   -2.8268 H   0  0  0  0  0  0  0  0  0  0  0  0
    1.6479    2.3991   -1.6524 H   0  0  0  0  0  0  0  0  0  0  0  0
    3.6017    1.9787    1.3267 H   0  0  0  0  0  0  0  0  0  0  0  0
    1.9833    2.2567    0.6581 H   0  0  0  0  0  0  0  0  0  0  0  0
    2.0913    0.3094    2.1636 H   0  0  0  0  0  0  0  0  0  0  0  0
    3.2691   -1.5165    1.6153 H   0  0  0  0  0  0  0  0  0  0  0  0
    1.7829   -0.9933   -0.5669 H   0  0  0  0  0  0  0  0  0  0  0  0
    0.5931    0.1803    0.0623 H   0  0  0  0  0  0  0  0  0  0  0  0
   -0.4283   -2.0685   -0.3997 H   0  0  0  0  0  0  0  0  0  0  0  0
   -0.3549   -3.6010    2.2364 H   0  0  0  0  0  0  0  0  0  0  0  0
    0.3778   -4.1179    0.7463 H   0  0  0  0  0  0  0  0  0  0  0  0
   -1.5993   -4.9255   -0.0889 H   0  0  0  0  0  0  0  0  0  0  0  0
   -2.0957   -4.8950    1.5906 H   0  0  0  0  0  0  0  0  0  0  0  0
   -3.8718   -3.8222    0.4638 H   0  0  0  0  0  0  0  0  0  0  0  0
   -2.8051   -3.0028   -0.6570 H   0  0  0  0  0  0  0  0  0  0  0  0
   -3.7554   -1.3955    0.9483 H   0  0  0  0  0  0  0  0  0  0  0  0
   -3.2027   -2.3654    2.2913 H   0  0  0  0  0  0  0  0  0  0  0  0
   -1.3311   -1.2295    2.4003 H   0  0  0  0  0  0  0  0  0  0  0  0
   -1.4525    1.2588    2.6373 H   0  0  0  0  0  0  0  0  0  0  0  0
   -3.1156    0.7598    2.2734 H   0  0  0  0  0  0  0  0  0  0  0  0
   -1.5178    3.0325    1.0540 H   0  0  0  0  0  0  0  0  0  0  0  0
   -3.2745    2.9478    1.4198 H   0  0  0  0  0  0  0  0  0  0  0  0
   -3.4670    3.5299   -1.3763 H   0  0  0  0  0  0  0  0  0  0  0  0
   -3.6461    2.2750   -3.5148 H   0  0  0  0  0  0  0  0  0  0  0  0
   -2.8869   -0.0778   -3.6325 H   0  0  0  0  0  0  0  0  0  0  0  0
   -1.9479   -1.2030   -1.6639 H   0  0  0  0  0  0  0  0  0  0  0  0
  1  2  1  0
  2  3  1  0
  2  4  1  0
  2  5  1  0
  5  6  1  0
  6  7  1  0
  6  8  1  0
  8  9  1  0
  9 10  1  0
 10 11  1  0
 11 12  1  0
 12 13  1  0
 13 14  1  0
 14 15  1  0
 15 16  1  0
 16 17  1  0
 17 18  1  0
 18 19  1  0
 19 20  2  0
 20 21  1  0
 21 22  2  0
 22 23  1  0
 23 24  2  0
 15 10  1  0
 24 16  1  0
 24 19  1  0
  1 25  1  0
  1 26  1  0
  1 27  1  0
  3 28  1  0
  3 29  1  0
  3 30  1  0
  4 31  1  0
  4 32  1  0
  4 33  1  0
  5 34  1  0
  5 35  1  0
  6 36  1  0
  7 37  1  0
  8 38  1  0
  8 39  1  0
 10 40  1  0
 11 41  1  0
 11 42  1  0
 12 43  1  0
 12 44  1  0
 13 45  1  0
 13 46  1  0
 14 47  1  0
 14 48  1  0
 15 49  1  1
 17 50  1  0
 17 51  1  0
 18 52  1  0
 18 53  1  0
 20 54  1  0
 21 55  1  0
 22 56  1  0
 23 57  1  0
M  CHG  1   2   1
M  END
$$$$
