
     RDKit          3D

 25 26  0  0  0  0  0  0  0  0999 V2000
    2.6420   -1.4923    2.2292 O   0  0  0  0  0  0  0  0  0  0  0  0
    2.1066   -0.7744    1.1957 C   0  0  0  0  0  0  0  0  0  0  0  0
    0.7339   -0.7251    0.9632 C   0  0  0  0  0  0  0  0  0  0  0  0
    0.2209    0.0318   -0.1114 C   0  0  0  0  0  0  0  0  0  0  0  0
   -1.2286    0.0935   -0.3626 C   0  0  0  0  0  0  0  0  0  0  0  0
   -1.9858   -1.0781   -0.5289 C   0  0  0  0  0  0  0  0  0  0  0  0
   -3.3621   -1.0190   -0.7647 C   0  0  0  0  0  0  0  0  0  0  0  0
   -4.0046    0.2143   -0.8376 C   0  0  0  0  0  0  0  0  0  0  0  0
   -3.2723    1.3877   -0.6770 C   0  0  0  0  0  0  0  0  0  0  0  0
   -1.8960    1.3271   -0.4424 C   0  0  0  0  0  0  0  0  0  0  0  0
    1.1246    0.7300   -0.9360 C   0  0  0  0  0  0  0  0  0  0  0  0
    2.4911    0.6681   -0.6896 C   0  0  0  0  0  0  0  0  0  0  0  0
    3.3516    1.3503   -1.5002 O   0  0  0  0  0  0  0  0  0  0  0  0
    2.9805   -0.0801    0.3701 C   0  0  0  0  0  0  0  0  0  0  0  0
    4.3305   -0.1228    0.5904 O   0  0  0  0  0  0  0  0  0  0  0  0
    1.9111   -1.9040    2.7227 H   0  0  0  0  0  0  0  0  0  0  0  0
    0.0469   -1.2584    1.6147 H   0  0  0  0  0  0  0  0  0  0  0  0
   -1.5021   -2.0520   -0.4914 H   0  0  0  0  0  0  0  0  0  0  0  0
   -3.9299   -1.9363   -0.8967 H   0  0  0  0  0  0  0  0  0  0  0  0
   -5.0745    0.2613   -1.0226 H   0  0  0  0  0  0  0  0  0  0  0  0
   -3.7701    2.3523   -0.7339 H   0  0  0  0  0  0  0  0  0  0  0  0
   -1.3442    2.2564   -0.3129 H   0  0  0  0  0  0  0  0  0  0  0  0
    0.7668    1.3156   -1.7794 H   0  0  0  0  0  0  0  0  0  0  0  0
    4.2386    1.1542   -1.1363 H   0  0  0  0  0  0  0  0  0  0  0  0
    4.4254   -0.7000    1.3758 H   0  0  0  0  0  0  0  0  0  0  0  0
  1  2  1  0
  2  3  2  0
  3  4  1  0
  4  5  1  0
  5  6  2  0
  6  7  1  0
  7  8  2  0
  8  9  1  0
  9 10  2  0
  4 11  2  0
 11 12  1  0
 12 13  1  0
 12 14  2  0
 14 15  1  0
 14  2  1  0
 10  5  1  0
  1 16  1  0
  3 17  1  0
  6 18  1  0
  7 19  1  0
  8 20  1  0
  9 21  1  0
 10 22  1  0
 11 23  1  0
 13 24  1  0
 15 25  1  0
M  END
$$$$
