
     RDKit          3D

 47 50  0  0  0  0  0  0  0  0999 V2000
    5.4816   -1.8179   -1.9766 C   0  0  0  0  0  0  0  0  0  0  0  0
    4.5225   -1.8494   -0.8239 C   0  0  0  0  0  0  0  0  0  0  0  0
    4.7323   -2.7203    0.2511 C   0  0  0  0  0  0  0  0  0  0  0  0
    3.8270   -2.7621    1.3112 C   0  0  0  0  0  0  0  0  0  0  0  0
    2.7001   -1.9393    1.3015 C   0  0  0  0  0  0  0  0  0  0  0  0
    2.4720   -1.0647    0.2332 C   0  0  0  0  0  0  0  0  0  0  0  0
    1.2463   -0.2577    0.2232 C   0  0  0  0  0  0  0  0  0  0  0  0
    1.1545    1.0813    0.1748 C   0  0  0  0  0  0  0  0  0  0  0  0
    2.2982    2.0688    0.1876 C   0  0  0  0  0  0  0  0  0  0  0  0
    3.4898    1.8317    0.1489 O   0  0  0  0  0  0  0  0  0  0  0  0
    1.6879    3.3108    0.2560 N   0  0  0  0  0  0  0  0  0  0  0  0
    2.3675    4.5756    0.3046 C   0  0  0  0  0  0  0  0  0  0  0  0
    0.2939    3.2030    0.2624 C   0  0  0  0  0  0  0  0  0  0  0  0
   -0.5356    4.2474    0.3151 N   0  0  0  0  0  0  0  0  0  0  0  0
   -1.8258    3.9006    0.2918 C   0  0  0  0  0  0  0  0  0  0  0  0
   -2.3133    2.6483    0.2029 N   0  0  0  0  0  0  0  0  0  0  0  0
   -1.4367    1.6222    0.1333 C   0  0  0  0  0  0  0  0  0  0  0  0
   -1.9062    0.2984   -0.0233 N   0  0  0  0  0  0  0  0  0  0  0  0
   -3.2156   -0.2028    0.1579 C   0  0  0  0  0  0  0  0  0  0  0  0
   -4.1301    0.3688    1.0483 C   0  0  0  0  0  0  0  0  0  0  0  0
   -5.3878   -0.2037    1.2552 C   0  0  0  0  0  0  0  0  0  0  0  0
   -5.7435   -1.3735    0.5881 C   0  0  0  0  0  0  0  0  0  0  0  0
   -4.8427   -1.9816   -0.2898 C   0  0  0  0  0  0  0  0  0  0  0  0
   -5.1966   -3.2702   -0.9709 C   0  0  0  0  0  0  0  0  0  0  0  0
   -3.5773   -1.4034   -0.4770 C   0  0  0  0  0  0  0  0  0  0  0  0
   -0.0830    1.8725    0.1880 C   0  0  0  0  0  0  0  0  0  0  0  0
    3.3778   -1.0391   -0.8342 C   0  0  0  0  0  0  0  0  0  0  0  0
    6.4941   -2.0786   -1.6509 H   0  0  0  0  0  0  0  0  0  0  0  0
    5.5303   -0.8162   -2.4162 H   0  0  0  0  0  0  0  0  0  0  0  0
    5.1645   -2.5277   -2.7469 H   0  0  0  0  0  0  0  0  0  0  0  0
    5.6064   -3.3672    0.2713 H   0  0  0  0  0  0  0  0  0  0  0  0
    4.0000   -3.4360    2.1462 H   0  0  0  0  0  0  0  0  0  0  0  0
    2.0044   -1.9852    2.1361 H   0  0  0  0  0  0  0  0  0  0  0  0
    0.3513   -0.8681    0.3044 H   0  0  0  0  0  0  0  0  0  0  0  0
    3.4509    4.4272    0.2920 H   0  0  0  0  0  0  0  0  0  0  0  0
    2.0916    5.1007    1.2239 H   0  0  0  0  0  0  0  0  0  0  0  0
    2.0811    5.1748   -0.5649 H   0  0  0  0  0  0  0  0  0  0  0  0
   -2.5544    4.7030    0.3439 H   0  0  0  0  0  0  0  0  0  0  0  0
   -1.4676   -0.1157   -0.8403 H   0  0  0  0  0  0  0  0  0  0  0  0
   -3.8734    1.2660    1.6043 H   0  0  0  0  0  0  0  0  0  0  0  0
   -6.0846    0.2617    1.9474 H   0  0  0  0  0  0  0  0  0  0  0  0
   -6.7229   -1.8114    0.7655 H   0  0  0  0  0  0  0  0  0  0  0  0
   -4.7224   -3.3332   -1.9560 H   0  0  0  0  0  0  0  0  0  0  0  0
   -6.2777   -3.3470   -1.1265 H   0  0  0  0  0  0  0  0  0  0  0  0
   -4.8661   -4.1179   -0.3629 H   0  0  0  0  0  0  0  0  0  0  0  0
   -2.8674   -1.9010   -1.1340 H   0  0  0  0  0  0  0  0  0  0  0  0
    3.2048   -0.3719   -1.6759 H   0  0  0  0  0  0  0  0  0  0  0  0
  1  2  1  0
  2  3  2  0
  3  4  1  0
  4  5  2  0
  5  6  1  0
  6  7  1  0
  7  8  2  3
  8  9  1  0
  9 10  2  0
  9 11  1  0
 11 12  1  0
 11 13  1  0
 13 14  2  0
 14 15  1  0
 15 16  2  0
 16 17  1  0
 17 18  1  0
 18 19  1  0
 19 20  1  0
 20 21  2  0
 21 22  1  0
 22 23  2  0
 23 24  1  0
 23 25  1  0
 17 26  2  0
  6 27  2  0
 27  2  1  0
 26  8  1  0
 26 13  1  0
 25 19  2  0
  1 28  1  0
  1 29  1  0
  1 30  1  0
  3 31  1  0
  4 32  1  0
  5 33  1  0
  7 34  1  0
 12 35  1  0
 12 36  1  0
 12 37  1  0
 15 38  1  0
 18 39  1  0
 20 40  1  0
 21 41  1  0
 22 42  1  0
 24 43  1  0
 24 44  1  0
 24 45  1  0
 25 46  1  0
 27 47  1  0
M  END
$$$$
