
     RDKit          3D

 37 39  0  0  0  0  0  0  0  0999 V2000
    2.3794   -2.1695   -0.9451 C   0  0  0  0  0  0  0  0  0  0  0  0
    2.2814   -0.9079   -0.1999 N   0  0  0  0  0  0  0  0  0  0  0  0
    3.5702   -0.3647    0.0882 C   0  0  0  0  0  0  0  0  0  0  0  0
    3.6823    0.7579    0.9182 C   0  0  0  0  0  0  0  0  0  0  0  0
    4.9367    1.2839    1.2263 C   0  0  0  0  0  0  0  0  0  0  0  0
    6.0690    0.6756    0.7109 C   0  0  0  0  0  0  0  0  0  0  0  0
    5.8931   -0.4403   -0.0838 C   0  0  0  0  0  0  0  0  0  0  0  0
    4.6866   -0.9682   -0.3918 N   0  0  0  0  0  0  0  0  0  0  0  0
    1.1820   -0.1298   -0.4312 C   0  0  0  0  0  0  0  0  0  0  0  0
    1.0179    1.1596   -0.8911 C   0  0  0  0  0  0  0  0  0  0  0  0
   -0.3711    1.4378   -0.9087 C   0  0  0  0  0  0  0  0  0  0  0  0
   -1.0438    0.3135   -0.4592 C   0  0  0  0  0  0  0  0  0  0  0  0
   -2.4738    0.0737   -0.2648 C   0  0  0  0  0  0  0  0  0  0  0  0
   -3.0335   -1.1964   -0.4842 C   0  0  0  0  0  0  0  0  0  0  0  0
   -4.4050   -1.4263   -0.3061 C   0  0  0  0  0  0  0  0  0  0  0  0
   -5.2358   -0.3850    0.0984 C   0  0  0  0  0  0  0  0  0  0  0  0
   -6.5741   -0.5982    0.2443 O   0  0  0  0  0  0  0  0  0  0  0  0
   -4.6799    0.8732    0.3219 C   0  0  0  0  0  0  0  0  0  0  0  0
   -5.5137    1.9721    0.7588 N   0  0  0  0  0  0  0  0  0  0  0  0
   -6.0424    1.8802    1.8753 O   0  0  0  0  0  0  0  0  0  0  0  0
   -5.5870    2.9528    0.0042 O   0  0  0  0  0  0  0  0  0  0  0  0
   -3.3133    1.1180    0.1377 C   0  0  0  0  0  0  0  0  0  0  0  0
   -0.0731   -0.6222   -0.1689 N   0  0  0  0  0  0  0  0  0  0  0  0
    3.0261   -2.8899   -0.4292 H   0  0  0  0  0  0  0  0  0  0  0  0
    1.4034   -2.6607   -1.0384 H   0  0  0  0  0  0  0  0  0  0  0  0
    2.7600   -2.0027   -1.9603 H   0  0  0  0  0  0  0  0  0  0  0  0
    2.7960    1.2173    1.3439 H   0  0  0  0  0  0  0  0  0  0  0  0
    5.0203    2.1557    1.8682 H   0  0  0  0  0  0  0  0  0  0  0  0
    7.0607    1.0546    0.9277 H   0  0  0  0  0  0  0  0  0  0  0  0
    6.7451   -0.9625   -0.5093 H   0  0  0  0  0  0  0  0  0  0  0  0
    1.8117    1.8283   -1.1972 H   0  0  0  0  0  0  0  0  0  0  0  0
   -0.8296    2.3652   -1.2284 H   0  0  0  0  0  0  0  0  0  0  0  0
   -2.4110   -2.0217   -0.8245 H   0  0  0  0  0  0  0  0  0  0  0  0
   -4.8011   -2.4192   -0.5011 H   0  0  0  0  0  0  0  0  0  0  0  0
   -6.7803   -1.5374    0.1003 H   0  0  0  0  0  0  0  0  0  0  0  0
   -2.9103    2.1120    0.3205 H   0  0  0  0  0  0  0  0  0  0  0  0
   -0.2430   -1.5290    0.2380 H   0  0  0  0  0  0  0  0  0  0  0  0
  1  2  1  0
  2  3  1  0
  3  4  2  0
  4  5  1  0
  5  6  2  0
  6  7  1  0
  7  8  2  0
  2  9  1  0
  9 10  2  0
 10 11  1  0
 11 12  2  0
 12 13  1  0
 13 14  1  0
 14 15  2  0
 15 16  1  0
 16 17  1  0
 16 18  2  0
 18 19  1  0
 19 20  2  0
 19 21  1  0
 18 22  1  0
 12 23  1  0
  8  3  1  0
 23  9  1  0
 22 13  2  0
  1 24  1  0
  1 25  1  0
  1 26  1  0
  4 27  1  0
  5 28  1  0
  6 29  1  0
  7 30  1  0
 10 31  1  0
 11 32  1  0
 14 33  1  0
 15 34  1  0
 17 35  1  0
 22 36  1  0
 23 37  1  0
M  CHG  2  19   1  21  -1
M  END
$$$$
