
     RDKit          3D

 40 42  0  0  0  0  0  0  0  0999 V2000
   -3.5305   -3.4080    0.0792 C   0  0  0  0  0  0  0  0  0  0  0  0
   -3.0940   -2.7543   -1.2227 C   0  0  0  0  0  0  0  0  0  0  0  0
   -2.0972   -1.7121   -0.9820 N   0  0  0  0  0  0  0  0  0  0  0  0
   -2.5776   -0.4568   -0.5734 C   0  0  0  0  0  0  0  0  0  0  0  0
   -3.9075   -0.2582   -0.4582 N   0  0  0  0  0  0  0  0  0  0  0  0
   -4.3399    0.9652   -0.0915 C   0  0  0  0  0  0  0  0  0  0  0  0
   -3.5779    2.0313    0.1695 N   0  0  0  0  0  0  0  0  0  0  0  0
   -2.2707    1.7833    0.0610 C   0  0  0  0  0  0  0  0  0  0  0  0
   -1.7034    0.5686   -0.2870 C   0  0  0  0  0  0  0  0  0  0  0  0
   -0.2473    0.7567   -0.2553 C   0  0  0  0  0  0  0  0  0  0  0  0
    0.6829   -0.1960   -0.4283 C   0  0  0  0  0  0  0  0  0  0  0  0
    2.1400   -0.0320   -0.3806 C   0  0  0  0  0  0  0  0  0  0  0  0
    2.8159    0.7783   -1.2974 C   0  0  0  0  0  0  0  0  0  0  0  0
    4.2068    0.8826   -1.2524 C   0  0  0  0  0  0  0  0  0  0  0  0
    4.9330    0.1651   -0.3019 C   0  0  0  0  0  0  0  0  0  0  0  0
    4.2757   -0.6723    0.6060 C   0  0  0  0  0  0  0  0  0  0  0  0
    5.0509   -1.4168    1.6520 C   0  0  0  0  0  0  0  0  0  0  0  0
    2.8767   -0.7587    0.5643 C   0  0  0  0  0  0  0  0  0  0  0  0
   -0.0061    2.2072    0.0892 C   0  0  0  0  0  0  0  0  0  0  0  0
    1.0593    2.7846    0.1865 O   0  0  0  0  0  0  0  0  0  0  0  0
   -1.2724    2.7391    0.2736 N   0  0  0  0  0  0  0  0  0  0  0  0
   -1.5650    4.0984    0.6343 C   0  0  0  0  0  0  0  0  0  0  0  0
   -4.2166   -4.2359   -0.1252 H   0  0  0  0  0  0  0  0  0  0  0  0
   -4.0426   -2.7011    0.7389 H   0  0  0  0  0  0  0  0  0  0  0  0
   -2.6680   -3.8068    0.6240 H   0  0  0  0  0  0  0  0  0  0  0  0
   -2.6237   -3.5247   -1.8453 H   0  0  0  0  0  0  0  0  0  0  0  0
   -3.9534   -2.3842   -1.7943 H   0  0  0  0  0  0  0  0  0  0  0  0
   -1.5091   -1.5751   -1.8016 H   0  0  0  0  0  0  0  0  0  0  0  0
   -5.4139    1.0943   -0.0061 H   0  0  0  0  0  0  0  0  0  0  0  0
    0.3850   -1.2286   -0.5885 H   0  0  0  0  0  0  0  0  0  0  0  0
    2.2665    1.3499   -2.0410 H   0  0  0  0  0  0  0  0  0  0  0  0
    4.7229    1.5327   -1.9537 H   0  0  0  0  0  0  0  0  0  0  0  0
    6.0153    0.2672   -0.2721 H   0  0  0  0  0  0  0  0  0  0  0  0
    4.5563   -2.3600    1.9068 H   0  0  0  0  0  0  0  0  0  0  0  0
    6.0552   -1.6644    1.2923 H   0  0  0  0  0  0  0  0  0  0  0  0
    5.1396   -0.8073    2.5565 H   0  0  0  0  0  0  0  0  0  0  0  0
    2.3582   -1.3934    1.2803 H   0  0  0  0  0  0  0  0  0  0  0  0
   -2.1149    4.1126    1.5800 H   0  0  0  0  0  0  0  0  0  0  0  0
   -0.6397    4.6692    0.7532 H   0  0  0  0  0  0  0  0  0  0  0  0
   -2.1686    4.5605   -0.1524 H   0  0  0  0  0  0  0  0  0  0  0  0
  1  2  1  0
  2  3  1  0
  3  4  1  0
  4  5  2  0
  5  6  1  0
  6  7  2  0
  7  8  1  0
  8  9  2  0
  9 10  1  0
 10 11  2  3
 11 12  1  0
 12 13  1  0
 13 14  2  0
 14 15  1  0
 15 16  2  0
 16 17  1  0
 16 18  1  0
 10 19  1  0
 19 20  2  0
 19 21  1  0
 21 22  1  0
  9  4  1  0
 18 12  2  0
 21  8  1  0
  1 23  1  0
  1 24  1  0
  1 25  1  0
  2 26  1  0
  2 27  1  0
  3 28  1  0
  6 29  1  0
 11 30  1  0
 13 31  1  0
 14 32  1  0
 15 33  1  0
 17 34  1  0
 17 35  1  0
 17 36  1  0
 18 37  1  0
 22 38  1  0
 22 39  1  0
 22 40  1  0
M  END
$$$$
