
     RDKit          3D

 40 42  0  0  0  0  0  0  0  0999 V2000
    3.6416    2.2438    0.8207 C   0  0  0  0  0  0  0  0  0  0  0  0
    2.5385    1.5960    1.6488 C   0  0  0  0  0  0  0  0  0  0  0  0
    1.8093    0.5838    0.8686 N   0  0  0  0  0  0  0  0  0  0  0  0
    2.4831   -0.6572    0.7351 C   0  0  0  0  0  0  0  0  0  0  0  0
    2.2383   -1.4907   -0.3632 C   0  0  0  0  0  0  0  0  0  0  0  0
    2.9047   -2.7101   -0.4872 C   0  0  0  0  0  0  0  0  0  0  0  0
    3.8173   -3.0833    0.4847 C   0  0  0  0  0  0  0  0  0  0  0  0
    4.0288   -2.2106    1.5333 C   0  0  0  0  0  0  0  0  0  0  0  0
    3.3940   -1.0244    1.6693 N   0  0  0  0  0  0  0  0  0  0  0  0
    0.5943    0.9075    0.3383 C   0  0  0  0  0  0  0  0  0  0  0  0
    0.0665    2.0993   -0.1113 C   0  0  0  0  0  0  0  0  0  0  0  0
   -1.2763    1.8692   -0.5327 C   0  0  0  0  0  0  0  0  0  0  0  0
   -2.1963    2.8953   -1.0922 C   0  0  0  0  0  0  0  0  0  0  0  0
   -1.5493    0.5272   -0.2988 C   0  0  0  0  0  0  0  0  0  0  0  0
   -2.7509   -0.2708   -0.5340 C   0  0  0  0  0  0  0  0  0  0  0  0
   -3.3659   -0.2746   -1.7915 C   0  0  0  0  0  0  0  0  0  0  0  0
   -4.5090   -1.0442   -2.0204 C   0  0  0  0  0  0  0  0  0  0  0  0
   -5.0473   -1.8163   -0.9927 C   0  0  0  0  0  0  0  0  0  0  0  0
   -4.4441   -1.8195    0.2636 C   0  0  0  0  0  0  0  0  0  0  0  0
   -3.3003   -1.0507    0.4921 C   0  0  0  0  0  0  0  0  0  0  0  0
   -0.4133   -0.0209    0.2535 N   0  0  0  0  0  0  0  0  0  0  0  0
    4.3980    1.5131    0.5170 H   0  0  0  0  0  0  0  0  0  0  0  0
    3.2377    2.7039   -0.0869 H   0  0  0  0  0  0  0  0  0  0  0  0
    4.1418    3.0236    1.4035 H   0  0  0  0  0  0  0  0  0  0  0  0
    2.9576    1.1752    2.5713 H   0  0  0  0  0  0  0  0  0  0  0  0
    1.8541    2.3826    1.9939 H   0  0  0  0  0  0  0  0  0  0  0  0
    1.5584   -1.1839   -1.1515 H   0  0  0  0  0  0  0  0  0  0  0  0
    2.7165   -3.3506   -1.3438 H   0  0  0  0  0  0  0  0  0  0  0  0
    4.3569   -4.0210    0.4223 H   0  0  0  0  0  0  0  0  0  0  0  0
    4.7389   -2.4443    2.3213 H   0  0  0  0  0  0  0  0  0  0  0  0
    0.5936    3.0431   -0.1522 H   0  0  0  0  0  0  0  0  0  0  0  0
   -2.2667    2.7914   -2.1794 H   0  0  0  0  0  0  0  0  0  0  0  0
   -1.8381    3.9060   -0.8705 H   0  0  0  0  0  0  0  0  0  0  0  0
   -3.1995    2.7970   -0.6654 H   0  0  0  0  0  0  0  0  0  0  0  0
   -2.9510    0.3143   -2.6058 H   0  0  0  0  0  0  0  0  0  0  0  0
   -4.9770   -1.0407   -3.0012 H   0  0  0  0  0  0  0  0  0  0  0  0
   -5.9380   -2.4134   -1.1702 H   0  0  0  0  0  0  0  0  0  0  0  0
   -4.8663   -2.4157    1.0682 H   0  0  0  0  0  0  0  0  0  0  0  0
   -2.8526   -1.0515    1.4831 H   0  0  0  0  0  0  0  0  0  0  0  0
   -0.3279   -0.9778    0.5619 H   0  0  0  0  0  0  0  0  0  0  0  0
  1  2  1  0
  2  3  1  0
  3  4  1  0
  4  5  2  0
  5  6  1  0
  6  7  2  0
  7  8  1  0
  8  9  2  0
  3 10  1  0
 10 11  2  0
 11 12  1  0
 12 13  1  0
 12 14  2  0
 14 15  1  0
 15 16  2  0
 16 17  1  0
 17 18  2  0
 18 19  1  0
 19 20  2  0
 14 21  1  0
  9  4  1  0
 21 10  1  0
 20 15  1  0
  1 22  1  0
  1 23  1  0
  1 24  1  0
  2 25  1  0
  2 26  1  0
  5 27  1  0
  6 28  1  0
  7 29  1  0
  8 30  1  0
 11 31  1  0
 13 32  1  0
 13 33  1  0
 13 34  1  0
 16 35  1  0
 17 36  1  0
 18 37  1  0
 19 38  1  0
 20 39  1  0
 21 40  1  0
M  END
$$$$
