
     RDKit          3D

 24 23  0  0  0  0  0  0  0  0999 V2000
   -5.1183    1.0900    0.0925 N   0  0  0  0  0  0  0  0  0  0  0  0
   -4.0540    0.8297   -0.2889 C   0  0  0  0  0  0  0  0  0  0  0  0
   -2.7303    0.5313   -0.7207 C   0  0  0  0  0  0  0  0  0  0  0  0
   -2.5817    0.0178   -2.0411 C   0  0  0  0  0  0  0  0  0  0  0  0
   -2.4220   -0.4196   -3.1029 N   0  0  0  0  0  0  0  0  0  0  0  0
   -1.6728    0.6915    0.1212 C   0  0  0  0  0  0  0  0  0  0  0  0
   -1.7863    1.1078    1.4472 N   0  0  0  0  0  0  0  0  0  0  0  0
   -0.2902    0.3750   -0.3117 C   0  0  0  0  0  0  0  0  0  0  0  0
    0.2851    1.2470   -1.2955 C   0  0  0  0  0  0  0  0  0  0  0  0
    0.7940    1.9460   -2.0668 N   0  0  0  0  0  0  0  0  0  0  0  0
    0.4328   -0.6454    0.2301 C   0  0  0  0  0  0  0  0  0  0  0  0
   -0.0220   -1.4688    1.2525 N   0  0  0  0  0  0  0  0  0  0  0  0
    1.8358   -0.8925   -0.1651 C   0  0  0  0  0  0  0  0  0  0  0  0
    2.0393   -1.9078   -1.1517 C   0  0  0  0  0  0  0  0  0  0  0  0
    2.1863   -2.7482   -1.9356 N   0  0  0  0  0  0  0  0  0  0  0  0
    2.8759   -0.2333    0.3964 C   0  0  0  0  0  0  0  0  0  0  0  0
    2.6495    0.7631    1.3896 C   0  0  0  0  0  0  0  0  0  0  0  0
    2.4008    1.5817    2.1734 N   0  0  0  0  0  0  0  0  0  0  0  0
    4.2243   -0.5054    0.0306 C   0  0  0  0  0  0  0  0  0  0  0  0
    5.3222   -0.7357   -0.2614 N   0  0  0  0  0  0  0  0  0  0  0  0
   -0.9409    1.5149    1.8561 H   0  0  0  0  0  0  0  0  0  0  0  0
   -2.6185    1.6475    1.6923 H   0  0  0  0  0  0  0  0  0  0  0  0
   -0.9996   -1.3252    1.5164 H   0  0  0  0  0  0  0  0  0  0  0  0
    0.1906   -2.4613    1.1431 H   0  0  0  0  0  0  0  0  0  0  0  0
  1  2  3  0
  2  3  1  0
  3  4  1  0
  4  5  3  0
  3  6  2  3
  6  7  1  0
  6  8  1  0
  8  9  1  0
  9 10  3  0
  8 11  2  3
 11 12  1  0
 11 13  1  0
 13 14  1  0
 14 15  3  0
 13 16  2  3
 16 17  1  0
 17 18  3  0
 16 19  1  0
 19 20  3  0
  7 21  1  0
  7 22  1  0
 12 23  1  0
 12 24  1  0
M  END
$$$$
