
     RDKit          3D

 23 24  0  0  0  0  0  0  0  0999 V2000
    4.6215   -0.6532   -0.3736 O   0  0  0  0  0  0  0  0  0  0  0  0
    3.2740   -0.4561   -0.3156 C   0  0  0  0  0  0  0  0  0  0  0  0
    2.6641    0.0545    0.8238 C   0  0  0  0  0  0  0  0  0  0  0  0
    1.2779    0.2395    0.8365 C   0  0  0  0  0  0  0  0  0  0  0  0
    0.4906   -0.0808   -0.2838 C   0  0  0  0  0  0  0  0  0  0  0  0
   -0.9682    0.1174   -0.2668 C   0  0  0  0  0  0  0  0  0  0  0  0
   -1.6073    0.8743   -1.2630 C   0  0  0  0  0  0  0  0  0  0  0  0
   -2.9919    1.0642   -1.2473 C   0  0  0  0  0  0  0  0  0  0  0  0
   -3.7617    0.4983   -0.2344 C   0  0  0  0  0  0  0  0  0  0  0  0
   -3.1486   -0.2565    0.7623 C   0  0  0  0  0  0  0  0  0  0  0  0
   -1.7638   -0.4443    0.7458 C   0  0  0  0  0  0  0  0  0  0  0  0
    1.1381   -0.5949   -1.4203 C   0  0  0  0  0  0  0  0  0  0  0  0
    2.5227   -0.7823   -1.4364 C   0  0  0  0  0  0  0  0  0  0  0  0
    5.0104   -0.3817    0.4737 H   0  0  0  0  0  0  0  0  0  0  0  0
    3.2417    0.3160    1.7045 H   0  0  0  0  0  0  0  0  0  0  0  0
    0.8105    0.6510    1.7292 H   0  0  0  0  0  0  0  0  0  0  0  0
   -1.0232    1.3343   -2.0577 H   0  0  0  0  0  0  0  0  0  0  0  0
   -3.4664    1.6559   -2.0257 H   0  0  0  0  0  0  0  0  0  0  0  0
   -4.8385    0.6447   -0.2222 H   0  0  0  0  0  0  0  0  0  0  0  0
   -3.7467   -0.7030    1.5523 H   0  0  0  0  0  0  0  0  0  0  0  0
   -1.3065   -1.0479    1.5273 H   0  0  0  0  0  0  0  0  0  0  0  0
    0.5619   -0.8657   -2.3026 H   0  0  0  0  0  0  0  0  0  0  0  0
    3.0096   -1.1836   -2.3204 H   0  0  0  0  0  0  0  0  0  0  0  0
  1  2  1  0
  2  3  1  0
  3  4  2  0
  4  5  1  0
  5  6  1  0
  6  7  2  0
  7  8  1  0
  8  9  2  0
  9 10  1  0
 10 11  2  0
  5 12  2  0
 12 13  1  0
 13  2  2  0
 11  6  1  0
  1 14  1  0
  3 15  1  0
  4 16  1  0
  7 17  1  0
  8 18  1  0
  9 19  1  0
 10 20  1  0
 11 21  1  0
 12 22  1  0
 13 23  1  0
M  END
$$$$
