
     RDKit          3D

 26 27  0  0  0  0  0  0  0  0999 V2000
   -3.6715   -1.1246   -1.0614 C   0  0  0  0  0  0  0  0  0  0  0  0
   -2.5236   -0.3741   -0.4989 C   0  0  0  0  0  0  0  0  0  0  0  0
   -2.4703    0.8260    0.1754 C   0  0  0  0  0  0  0  0  0  0  0  0
   -1.1083    1.0952    0.4930 C   0  0  0  0  0  0  0  0  0  0  0  0
   -0.6097    2.2863    1.2317 C   0  0  0  0  0  0  0  0  0  0  0  0
   -0.3574    0.0375   -0.0054 C   0  0  0  0  0  0  0  0  0  0  0  0
    1.0822   -0.2146    0.0116 C   0  0  0  0  0  0  0  0  0  0  0  0
    1.9768    0.7454   -0.4757 C   0  0  0  0  0  0  0  0  0  0  0  0
    3.3522    0.5020   -0.4678 C   0  0  0  0  0  0  0  0  0  0  0  0
    3.8443   -0.7036    0.0289 C   0  0  0  0  0  0  0  0  0  0  0  0
    2.9627   -1.6659    0.5181 C   0  0  0  0  0  0  0  0  0  0  0  0
    1.5871   -1.4230    0.5089 C   0  0  0  0  0  0  0  0  0  0  0  0
   -1.2378   -0.8402   -0.5987 N   0  0  0  0  0  0  0  0  0  0  0  0
   -4.6131   -0.5968   -0.8789 H   0  0  0  0  0  0  0  0  0  0  0  0
   -3.5569   -1.2492   -2.1429 H   0  0  0  0  0  0  0  0  0  0  0  0
   -3.7445   -2.1162   -0.6036 H   0  0  0  0  0  0  0  0  0  0  0  0
   -3.3223    1.4486    0.4189 H   0  0  0  0  0  0  0  0  0  0  0  0
    0.1478    2.0014    1.9689 H   0  0  0  0  0  0  0  0  0  0  0  0
   -0.1682    3.0079    0.5373 H   0  0  0  0  0  0  0  0  0  0  0  0
   -1.4241    2.7851    1.7672 H   0  0  0  0  0  0  0  0  0  0  0  0
    1.6052    1.6859   -0.8752 H   0  0  0  0  0  0  0  0  0  0  0  0
    4.0373    1.2537   -0.8506 H   0  0  0  0  0  0  0  0  0  0  0  0
    4.9148   -0.8918    0.0371 H   0  0  0  0  0  0  0  0  0  0  0  0
    3.3455   -2.6034    0.9126 H   0  0  0  0  0  0  0  0  0  0  0  0
    0.9136   -2.1761    0.9105 H   0  0  0  0  0  0  0  0  0  0  0  0
   -0.9620   -1.6957   -1.0611 H   0  0  0  0  0  0  0  0  0  0  0  0
  1  2  1  0
  2  3  2  0
  3  4  1  0
  4  5  1  0
  4  6  2  0
  6  7  1  0
  7  8  2  0
  8  9  1  0
  9 10  2  0
 10 11  1  0
 11 12  2  0
  6 13  1  0
 13  2  1  0
 12  7  1  0
  1 14  1  0
  1 15  1  0
  1 16  1  0
  3 17  1  0
  5 18  1  0
  5 19  1  0
  5 20  1  0
  8 21  1  0
  9 22  1  0
 10 23  1  0
 11 24  1  0
 12 25  1  0
 13 26  1  0
M  END
$$$$
