
     RDKit          3D

 33 35  0  0  0  0  0  0  0  0999 V2000
    3.1398   -3.1714   -0.7356 O   0  0  0  0  0  0  0  0  0  0  0  0
    2.5903   -2.5403    0.1776 N   0  0  0  0  0  0  0  0  0  0  0  0
    1.7367   -2.9837    0.9577 O   0  0  0  0  0  0  0  0  0  0  0  0
    3.0288   -1.1770    0.3868 C   0  0  0  0  0  0  0  0  0  0  0  0
    4.2894   -0.9887    0.9693 C   0  0  0  0  0  0  0  0  0  0  0  0
    4.7280    0.3092    1.2200 C   0  0  0  0  0  0  0  0  0  0  0  0
    3.9131    1.3877    0.8869 C   0  0  0  0  0  0  0  0  0  0  0  0
    4.3911    2.6380    1.1457 O   0  0  0  0  0  0  0  0  0  0  0  0
    2.6584    1.1966    0.3053 C   0  0  0  0  0  0  0  0  0  0  0  0
    2.1942   -0.1021    0.0436 C   0  0  0  0  0  0  0  0  0  0  0  0
    0.8916   -0.2693   -0.5942 C   0  0  0  0  0  0  0  0  0  0  0  0
    0.5570   -0.8061   -1.8218 C   0  0  0  0  0  0  0  0  0  0  0  0
   -0.8512   -0.7413   -1.9507 C   0  0  0  0  0  0  0  0  0  0  0  0
   -1.3655   -0.1629   -0.8032 C   0  0  0  0  0  0  0  0  0  0  0  0
   -2.7492    0.1174   -0.4159 C   0  0  0  0  0  0  0  0  0  0  0  0
   -3.7804   -0.7505   -0.8038 C   0  0  0  0  0  0  0  0  0  0  0  0
   -5.1058   -0.4969   -0.4400 C   0  0  0  0  0  0  0  0  0  0  0  0
   -5.4163    0.6322    0.3147 C   0  0  0  0  0  0  0  0  0  0  0  0
   -4.3991    1.5021    0.6992 C   0  0  0  0  0  0  0  0  0  0  0  0
   -4.7792    2.9024    1.6259 Cl  0  0  0  0  0  0  0  0  0  0  0  0
   -3.0734    1.2524    0.3393 C   0  0  0  0  0  0  0  0  0  0  0  0
   -0.2868    0.1016    0.0138 N   0  0  0  0  0  0  0  0  0  0  0  0
    4.9203   -1.8357    1.2281 H   0  0  0  0  0  0  0  0  0  0  0  0
    5.7021    0.4832    1.6708 H   0  0  0  0  0  0  0  0  0  0  0  0
    3.7589    3.2991    0.8176 H   0  0  0  0  0  0  0  0  0  0  0  0
    2.0447    2.0523    0.0353 H   0  0  0  0  0  0  0  0  0  0  0  0
    1.2499   -1.2048   -2.5532 H   0  0  0  0  0  0  0  0  0  0  0  0
   -1.4300   -1.0797   -2.8010 H   0  0  0  0  0  0  0  0  0  0  0  0
   -3.5575   -1.6436   -1.3845 H   0  0  0  0  0  0  0  0  0  0  0  0
   -5.8925   -1.1828   -0.7445 H   0  0  0  0  0  0  0  0  0  0  0  0
   -6.4473    0.8281    0.5964 H   0  0  0  0  0  0  0  0  0  0  0  0
   -2.3034    1.9588    0.6350 H   0  0  0  0  0  0  0  0  0  0  0  0
   -0.3568    0.4761    0.9501 H   0  0  0  0  0  0  0  0  0  0  0  0
  1  2  2  0
  2  3  1  0
  2  4  1  0
  4  5  1  0
  5  6  2  0
  6  7  1  0
  7  8  1  0
  7  9  2  0
  9 10  1  0
 10 11  1  0
 11 12  2  0
 12 13  1  0
 13 14  2  0
 14 15  1  0
 15 16  2  0
 16 17  1  0
 17 18  2  0
 18 19  1  0
 19 20  1  0
 19 21  2  0
 14 22  1  0
 10  4  2  0
 22 11  1  0
 21 15  1  0
  5 23  1  0
  6 24  1  0
  8 25  1  0
  9 26  1  0
 12 27  1  0
 13 28  1  0
 16 29  1  0
 17 30  1  0
 18 31  1  0
 21 32  1  0
 22 33  1  0
M  CHG  2   2   1   3  -1
M  END
$$$$
