
     RDKit          3D

 42 44  0  0  0  0  0  0  0  0999 V2000
   -4.3916   -2.7821   -2.0253 O   0  0  0  0  0  0  0  0  0  0  0  0
   -4.9594   -1.7500   -1.7208 C   0  0  0  0  0  0  0  0  0  0  0  0
   -6.2603   -1.5608   -2.0069 O   0  0  0  0  0  0  0  0  0  0  0  0
   -4.3514   -0.5913   -1.0235 C   0  0  0  0  0  0  0  0  0  0  0  0
   -5.0851    0.5601   -0.7367 C   0  0  0  0  0  0  0  0  0  0  0  0
   -4.4470    1.6001   -0.0821 C   0  0  0  0  0  0  0  0  0  0  0  0
   -5.1050    2.7650    0.2206 O   0  0  0  0  0  0  0  0  0  0  0  0
   -3.0965    1.5063    0.2896 C   0  0  0  0  0  0  0  0  0  0  0  0
   -2.5563    2.6153    0.9002 O   0  0  0  0  0  0  0  0  0  0  0  0
   -2.3224    0.3593    0.0209 C   0  0  0  0  0  0  0  0  0  0  0  0
   -0.9858    0.2206    0.3744 N   0  0  0  0  0  0  0  0  0  0  0  0
   -0.4102    0.9893    1.4935 C   0  0  0  0  0  0  0  0  0  0  0  0
    0.8010    0.2688    2.1142 C   0  0  0  0  0  0  0  0  0  0  0  0
    1.8449   -0.0421    1.1365 N   0  0  0  0  0  0  0  0  0  0  0  0
    3.1644   -0.1497    1.5794 C   0  0  0  0  0  0  0  0  0  0  0  0
    3.4399   -0.1268    2.7823 O   0  0  0  0  0  0  0  0  0  0  0  0
    4.2994   -0.2987    0.6035 C   0  0  0  0  0  0  0  0  0  0  0  0
    5.5029   -0.8311    1.0604 C   0  0  0  0  0  0  0  0  0  0  0  0
    6.5693   -0.9357    0.1713 C   0  0  0  0  0  0  0  0  0  0  0  0
    6.4074   -0.4985   -1.1379 C   0  0  0  0  0  0  0  0  0  0  0  0
    5.1808    0.0289   -1.5072 C   0  0  0  0  0  0  0  0  0  0  0  0
    4.1255    0.1400   -0.6714 N   0  0  0  0  0  0  0  0  0  0  0  0
    1.3841   -0.2988   -0.2327 C   0  0  0  0  0  0  0  0  0  0  0  0
   -0.0951   -0.7287   -0.3115 C   0  0  0  0  0  0  0  0  0  0  0  0
   -2.9965   -0.6813   -0.6490 C   0  0  0  0  0  0  0  0  0  0  0  0
   -6.5215   -2.3934   -2.4548 H   0  0  0  0  0  0  0  0  0  0  0  0
   -6.1283    0.6359   -1.0234 H   0  0  0  0  0  0  0  0  0  0  0  0
   -6.0244    2.6885   -0.0895 H   0  0  0  0  0  0  0  0  0  0  0  0
   -3.2890    3.2614    0.9335 H   0  0  0  0  0  0  0  0  0  0  0  0
   -0.0912    1.9724    1.1275 H   0  0  0  0  0  0  0  0  0  0  0  0
   -1.1459    1.1270    2.2945 H   0  0  0  0  0  0  0  0  0  0  0  0
    1.2174    0.8803    2.9224 H   0  0  0  0  0  0  0  0  0  0  0  0
    0.4849   -0.6860    2.5525 H   0  0  0  0  0  0  0  0  0  0  0  0
    5.6100   -1.1537    2.0916 H   0  0  0  0  0  0  0  0  0  0  0  0
    7.5188   -1.3476    0.5018 H   0  0  0  0  0  0  0  0  0  0  0  0
    7.2205   -0.5615   -1.8530 H   0  0  0  0  0  0  0  0  0  0  0  0
    5.0108    0.3899   -2.5180 H   0  0  0  0  0  0  0  0  0  0  0  0
    1.5229    0.6320   -0.7952 H   0  0  0  0  0  0  0  0  0  0  0  0
    1.9965   -1.0831   -0.6875 H   0  0  0  0  0  0  0  0  0  0  0  0
   -0.3549   -0.8132   -1.3737 H   0  0  0  0  0  0  0  0  0  0  0  0
   -0.2106   -1.7180    0.1482 H   0  0  0  0  0  0  0  0  0  0  0  0
   -2.4728   -1.6091   -0.8705 H   0  0  0  0  0  0  0  0  0  0  0  0
  1  2  2  0
  2  3  1  0
  2  4  1  0
  4  5  1  0
  5  6  2  0
  6  7  1  0
  6  8  1  0
  8  9  1  0
  8 10  2  0
 10 11  1  0
 11 12  1  0
 12 13  1  0
 13 14  1  0
 14 15  1  0
 15 16  2  0
 15 17  1  0
 17 18  2  0
 18 19  1  0
 19 20  2  0
 20 21  1  0
 21 22  2  0
 14 23  1  0
 23 24  1  0
 10 25  1  0
 25  4  2  0
 24 11  1  0
 22 17  1  0
  3 26  1  0
  5 27  1  0
  7 28  1  0
  9 29  1  0
 12 30  1  0
 12 31  1  0
 13 32  1  0
 13 33  1  0
 18 34  1  0
 19 35  1  0
 20 36  1  0
 21 37  1  0
 23 38  1  0
 23 39  1  0
 24 40  1  0
 24 41  1  0
 25 42  1  0
M  END
$$$$
