
     RDKit          3D

 43 46  0  0  0  0  0  0  0  0999 V2000
    5.1974   -0.0997    1.6782 C   0  0  0  0  0  0  0  0  0  0  0  0
    4.2180   -0.3596    0.5725 C   0  0  0  0  0  0  0  0  0  0  0  0
    4.6473   -0.9007   -0.6444 C   0  0  0  0  0  0  0  0  0  0  0  0
    3.7300   -1.1633   -1.6617 C   0  0  0  0  0  0  0  0  0  0  0  0
    2.3746   -0.8941   -1.4682 C   0  0  0  0  0  0  0  0  0  0  0  0
    1.9271   -0.3560   -0.2569 C   0  0  0  0  0  0  0  0  0  0  0  0
    0.4889   -0.1395   -0.0622 C   0  0  0  0  0  0  0  0  0  0  0  0
   -0.1289    1.0244    0.1958 C   0  0  0  0  0  0  0  0  0  0  0  0
    0.5233    2.3799    0.3438 C   0  0  0  0  0  0  0  0  0  0  0  0
    1.6989    2.6615    0.2169 O   0  0  0  0  0  0  0  0  0  0  0  0
   -0.5185    3.2370    0.6597 N   0  0  0  0  0  0  0  0  0  0  0  0
   -0.3971    4.6488    0.8968 C   0  0  0  0  0  0  0  0  0  0  0  0
   -1.7457    2.5688    0.6975 C   0  0  0  0  0  0  0  0  0  0  0  0
   -2.9112    3.1644    0.9722 N   0  0  0  0  0  0  0  0  0  0  0  0
   -3.9595    2.3342    0.9469 C   0  0  0  0  0  0  0  0  0  0  0  0
   -3.9239    1.0173    0.6707 N   0  0  0  0  0  0  0  0  0  0  0  0
   -2.7143    0.4703    0.3866 C   0  0  0  0  0  0  0  0  0  0  0  0
   -2.7623   -0.9534    0.0548 C   0  0  0  0  0  0  0  0  0  0  0  0
   -2.8984   -1.9203    1.0653 C   0  0  0  0  0  0  0  0  0  0  0  0
   -2.9346   -3.2827    0.7542 C   0  0  0  0  0  0  0  0  0  0  0  0
   -2.8430   -3.6821   -0.5744 C   0  0  0  0  0  0  0  0  0  0  0  0
   -2.8722   -4.9989   -0.9246 O   0  0  0  0  0  0  0  0  0  0  0  0
   -2.7227   -2.7453   -1.5930 C   0  0  0  0  0  0  0  0  0  0  0  0
   -2.6874   -1.3847   -1.2807 C   0  0  0  0  0  0  0  0  0  0  0  0
   -1.5676    1.2270    0.4056 C   0  0  0  0  0  0  0  0  0  0  0  0
    2.8517   -0.1087    0.7650 C   0  0  0  0  0  0  0  0  0  0  0  0
    4.8848    0.7588    2.2820 H   0  0  0  0  0  0  0  0  0  0  0  0
    5.2737   -0.9793    2.3247 H   0  0  0  0  0  0  0  0  0  0  0  0
    6.1896    0.1309    1.2764 H   0  0  0  0  0  0  0  0  0  0  0  0
    5.7005   -1.1166   -0.8083 H   0  0  0  0  0  0  0  0  0  0  0  0
    4.0714   -1.5787   -2.6061 H   0  0  0  0  0  0  0  0  0  0  0  0
    1.6726   -1.1075   -2.2706 H   0  0  0  0  0  0  0  0  0  0  0  0
   -0.0780   -1.0610   -0.1535 H   0  0  0  0  0  0  0  0  0  0  0  0
   -0.9792    5.1932    0.1473 H   0  0  0  0  0  0  0  0  0  0  0  0
   -0.7709    4.8826    1.8981 H   0  0  0  0  0  0  0  0  0  0  0  0
    0.6493    4.9589    0.8268 H   0  0  0  0  0  0  0  0  0  0  0  0
   -4.9327    2.7603    1.1675 H   0  0  0  0  0  0  0  0  0  0  0  0
   -2.9805   -1.6101    2.1055 H   0  0  0  0  0  0  0  0  0  0  0  0
   -3.0379   -4.0076    1.5554 H   0  0  0  0  0  0  0  0  0  0  0  0
   -2.9785   -5.5332   -0.1204 H   0  0  0  0  0  0  0  0  0  0  0  0
   -2.6622   -3.0719   -2.6274 H   0  0  0  0  0  0  0  0  0  0  0  0
   -2.6040   -0.6596   -2.0879 H   0  0  0  0  0  0  0  0  0  0  0  0
    2.5121    0.2964    1.7158 H   0  0  0  0  0  0  0  0  0  0  0  0
  1  2  1  0
  2  3  2  0
  3  4  1  0
  4  5  2  0
  5  6  1  0
  6  7  1  0
  7  8  2  3
  8  9  1  0
  9 10  2  0
  9 11  1  0
 11 12  1  0
 11 13  1  0
 13 14  2  0
 14 15  1  0
 15 16  2  0
 16 17  1  0
 17 18  1  0
 18 19  1  0
 19 20  2  0
 20 21  1  0
 21 22  1  0
 21 23  2  0
 23 24  1  0
 17 25  2  0
  6 26  2  0
 26  2  1  0
 25  8  1  0
 25 13  1  0
 24 18  2  0
  1 27  1  0
  1 28  1  0
  1 29  1  0
  3 30  1  0
  4 31  1  0
  5 32  1  0
  7 33  1  0
 12 34  1  0
 12 35  1  0
 12 36  1  0
 15 37  1  0
 19 38  1  0
 20 39  1  0
 22 40  1  0
 23 41  1  0
 24 42  1  0
 26 43  1  0
M  END
$$$$
