
     RDKit          3D

 30 31  0  0  0  0  0  0  0  0999 V2000
   -2.5650    2.2825   -2.4743 O   0  0  0  0  0  0  0  0  0  0  0  0
   -2.9896    1.8692   -1.4118 C   0  0  0  0  0  0  0  0  0  0  0  0
   -4.0947    2.3920   -0.8508 O   0  0  0  0  0  0  0  0  0  0  0  0
   -2.3951    0.7791   -0.6010 C   0  0  0  0  0  0  0  0  0  0  0  0
   -2.9753    0.3521    0.5998 C   0  0  0  0  0  0  0  0  0  0  0  0
   -2.3674   -0.6741    1.3115 C   0  0  0  0  0  0  0  0  0  0  0  0
   -2.8843   -1.1353    2.4927 O   0  0  0  0  0  0  0  0  0  0  0  0
   -1.1969   -1.2763    0.8437 C   0  0  0  0  0  0  0  0  0  0  0  0
   -0.6389   -2.2815    1.5860 O   0  0  0  0  0  0  0  0  0  0  0  0
   -0.6037   -0.8691   -0.3519 C   0  0  0  0  0  0  0  0  0  0  0  0
    0.6739   -1.4909   -0.8628 C   0  0  0  0  0  0  0  0  0  0  0  0
    1.9089   -0.6857   -0.5267 C   0  0  0  0  0  0  0  0  0  0  0  0
    2.4977   -0.7888    0.7427 C   0  0  0  0  0  0  0  0  0  0  0  0
    3.6292   -0.0375    1.0659 C   0  0  0  0  0  0  0  0  0  0  0  0
    4.1832    0.8286    0.1242 C   0  0  0  0  0  0  0  0  0  0  0  0
    3.6011    0.9405   -1.1367 C   0  0  0  0  0  0  0  0  0  0  0  0
    4.2823    2.0125   -2.2985 Cl  0  0  0  0  0  0  0  0  0  0  0  0
    2.4705    0.1921   -1.4657 C   0  0  0  0  0  0  0  0  0  0  0  0
   -1.2176    0.1721   -1.0701 C   0  0  0  0  0  0  0  0  0  0  0  0
   -4.3671    3.0894   -1.4846 H   0  0  0  0  0  0  0  0  0  0  0  0
   -3.8843    0.8186    0.9651 H   0  0  0  0  0  0  0  0  0  0  0  0
   -3.6853   -0.6218    2.6984 H   0  0  0  0  0  0  0  0  0  0  0  0
   -1.2335   -2.3782    2.3573 H   0  0  0  0  0  0  0  0  0  0  0  0
    0.5985   -1.6173   -1.9515 H   0  0  0  0  0  0  0  0  0  0  0  0
    0.7918   -2.5128   -0.4802 H   0  0  0  0  0  0  0  0  0  0  0  0
    2.0693   -1.4571    1.4884 H   0  0  0  0  0  0  0  0  0  0  0  0
    4.0754   -0.1270    2.0530 H   0  0  0  0  0  0  0  0  0  0  0  0
    5.0631    1.4125    0.3791 H   0  0  0  0  0  0  0  0  0  0  0  0
    2.0267    0.2940   -2.4529 H   0  0  0  0  0  0  0  0  0  0  0  0
   -0.7731    0.5183   -2.0028 H   0  0  0  0  0  0  0  0  0  0  0  0
  1  2  2  0
  2  3  1  0
  2  4  1  0
  4  5  1  0
  5  6  2  0
  6  7  1  0
  6  8  1  0
  8  9  1  0
  8 10  2  0
 10 11  1  0
 11 12  1  0
 12 13  2  0
 13 14  1  0
 14 15  2  0
 15 16  1  0
 16 17  1  0
 16 18  2  0
 10 19  1  0
 19  4  2  0
 18 12  1  0
  3 20  1  0
  5 21  1  0
  7 22  1  0
  9 23  1  0
 11 24  1  0
 11 25  1  0
 13 26  1  0
 14 27  1  0
 15 28  1  0
 18 29  1  0
 19 30  1  0
M  END
$$$$
