
     RDKit          3D

 33 34  0  0  0  0  0  0  0  0999 V2000
   -5.4349    0.1243   -2.5976 N   0  0  0  0  0  0  0  0  0  0  0  0
   -5.3981    0.1527   -1.4381 C   0  0  0  0  0  0  0  0  0  0  0  0
   -5.2912    0.1673   -0.0202 C   0  0  0  0  0  0  0  0  0  0  0  0
   -6.4872    0.4073    0.7149 C   0  0  0  0  0  0  0  0  0  0  0  0
   -7.4606    0.6112    1.3111 N   0  0  0  0  0  0  0  0  0  0  0  0
   -4.1005   -0.0151    0.5957 C   0  0  0  0  0  0  0  0  0  0  0  0
   -4.0165    0.0278    2.0273 C   0  0  0  0  0  0  0  0  0  0  0  0
   -3.9346    0.0950    3.1822 N   0  0  0  0  0  0  0  0  0  0  0  0
   -2.8346   -0.2858   -0.1186 C   0  0  0  0  0  0  0  0  0  0  0  0
   -2.8259   -1.4025   -0.9500 N   0  0  0  0  0  0  0  0  0  0  0  0
   -1.7519    0.4791    0.1493 C   0  0  0  0  0  0  0  0  0  0  0  0
   -0.4970    0.3041   -0.4860 C   0  0  0  0  0  0  0  0  0  0  0  0
   -0.0836    0.1311   -1.7904 C   0  0  0  0  0  0  0  0  0  0  0  0
    1.3278    0.0197   -1.7801 C   0  0  0  0  0  0  0  0  0  0  0  0
    1.7635    0.1470   -0.4719 C   0  0  0  0  0  0  0  0  0  0  0  0
    3.1147    0.0964    0.0909 C   0  0  0  0  0  0  0  0  0  0  0  0
    3.4717    0.8892    1.1920 C   0  0  0  0  0  0  0  0  0  0  0  0
    4.7635    0.8340    1.7238 C   0  0  0  0  0  0  0  0  0  0  0  0
    5.7147   -0.0137    1.1598 C   0  0  0  0  0  0  0  0  0  0  0  0
    5.3691   -0.8000    0.0636 C   0  0  0  0  0  0  0  0  0  0  0  0
    6.6577   -1.9508   -0.7055 Br  0  0  0  0  0  0  0  0  0  0  0  0
    4.0812   -0.7482   -0.4719 C   0  0  0  0  0  0  0  0  0  0  0  0
    0.6325    0.3260    0.2982 N   0  0  0  0  0  0  0  0  0  0  0  0
   -3.3059   -1.2260   -1.8356 H   0  0  0  0  0  0  0  0  0  0  0  0
   -1.8684   -1.6553   -1.2081 H   0  0  0  0  0  0  0  0  0  0  0  0
   -1.8169    1.2916    0.8725 H   0  0  0  0  0  0  0  0  0  0  0  0
   -0.7223    0.0976   -2.6640 H   0  0  0  0  0  0  0  0  0  0  0  0
    1.9640   -0.1218   -2.6450 H   0  0  0  0  0  0  0  0  0  0  0  0
    2.7574    1.5768    1.6379 H   0  0  0  0  0  0  0  0  0  0  0  0
    5.0284    1.4577    2.5741 H   0  0  0  0  0  0  0  0  0  0  0  0
    6.7174   -0.0514    1.5771 H   0  0  0  0  0  0  0  0  0  0  0  0
    3.8276   -1.3759   -1.3224 H   0  0  0  0  0  0  0  0  0  0  0  0
    0.6390    0.4104    1.3057 H   0  0  0  0  0  0  0  0  0  0  0  0
  1  2  3  0
  2  3  1  0
  3  4  1  0
  4  5  3  0
  3  6  2  3
  6  7  1  0
  7  8  3  0
  6  9  1  0
  9 10  1  0
  9 11  2  3
 11 12  1  0
 12 13  2  0
 13 14  1  0
 14 15  2  0
 15 16  1  0
 16 17  2  0
 17 18  1  0
 18 19  2  0
 19 20  1  0
 20 21  1  0
 20 22  2  0
 15 23  1  0
 23 12  1  0
 22 16  1  0
 10 24  1  0
 10 25  1  0
 11 26  1  0
 13 27  1  0
 14 28  1  0
 17 29  1  0
 18 30  1  0
 19 31  1  0
 22 32  1  0
 23 33  1  0
M  END
$$$$
