
     RDKit          3D

 32 34  0  0  0  0  0  0  0  0999 V2000
    1.7157   -0.4739   -2.6900 C   0  0  0  0  0  0  0  0  0  0  0  0
    0.6980   -0.3255   -1.6152 C   0  0  0  0  0  0  0  0  0  0  0  0
   -0.7079   -0.5126   -1.7709 C   0  0  0  0  0  0  0  0  0  0  0  0
   -1.3228   -0.2684   -0.5573 C   0  0  0  0  0  0  0  0  0  0  0  0
   -2.7158   -0.3037   -0.1259 C   0  0  0  0  0  0  0  0  0  0  0  0
   -3.7598   -0.6404   -0.9786 C   0  0  0  0  0  0  0  0  0  0  0  0
   -5.0577   -0.6462   -0.4730 C   0  0  0  0  0  0  0  0  0  0  0  0
   -5.2712   -0.3176    0.8604 C   0  0  0  0  0  0  0  0  0  0  0  0
   -4.1720    0.0054    1.6384 C   0  0  0  0  0  0  0  0  0  0  0  0
   -2.9016    0.0209    1.1786 N   0  0  0  0  0  0  0  0  0  0  0  0
   -0.3162    0.0586    0.3214 N   0  0  0  0  0  0  0  0  0  0  0  0
    0.9155    0.0295   -0.2899 C   0  0  0  0  0  0  0  0  0  0  0  0
    2.1442    0.3292    0.4433 C   0  0  0  0  0  0  0  0  0  0  0  0
    2.2480    1.4971    1.2103 C   0  0  0  0  0  0  0  0  0  0  0  0
    3.4202    1.7813    1.9153 C   0  0  0  0  0  0  0  0  0  0  0  0
    4.4980    0.8995    1.8612 C   0  0  0  0  0  0  0  0  0  0  0  0
    4.4051   -0.2658    1.1025 C   0  0  0  0  0  0  0  0  0  0  0  0
    3.2333   -0.5492    0.3967 C   0  0  0  0  0  0  0  0  0  0  0  0
    1.2490   -0.4344   -3.6797 H   0  0  0  0  0  0  0  0  0  0  0  0
    2.4586    0.3286   -2.6407 H   0  0  0  0  0  0  0  0  0  0  0  0
    2.2312   -1.4347   -2.5963 H   0  0  0  0  0  0  0  0  0  0  0  0
   -1.2092   -0.7939   -2.6878 H   0  0  0  0  0  0  0  0  0  0  0  0
   -3.5794   -0.8951   -2.0163 H   0  0  0  0  0  0  0  0  0  0  0  0
   -5.8939   -0.9056   -1.1159 H   0  0  0  0  0  0  0  0  0  0  0  0
   -6.2694   -0.3135    1.2834 H   0  0  0  0  0  0  0  0  0  0  0  0
   -4.2880    0.2688    2.6858 H   0  0  0  0  0  0  0  0  0  0  0  0
   -0.4885    0.2709    1.2954 H   0  0  0  0  0  0  0  0  0  0  0  0
    1.4218    2.2029    1.2515 H   0  0  0  0  0  0  0  0  0  0  0  0
    3.4918    2.6929    2.5027 H   0  0  0  0  0  0  0  0  0  0  0  0
    5.4099    1.1204    2.4095 H   0  0  0  0  0  0  0  0  0  0  0  0
    5.2427   -0.9569    1.0611 H   0  0  0  0  0  0  0  0  0  0  0  0
    3.1706   -1.4685   -0.1801 H   0  0  0  0  0  0  0  0  0  0  0  0
  1  2  1  0
  2  3  1  0
  3  4  2  0
  4  5  1  0
  5  6  2  0
  6  7  1  0
  7  8  2  0
  8  9  1  0
  9 10  2  0
  4 11  1  0
 11 12  1  0
 12 13  1  0
 13 14  2  0
 14 15  1  0
 15 16  2  0
 16 17  1  0
 17 18  2  0
 12  2  2  0
 18 13  1  0
 10  5  1  0
  1 19  1  0
  1 20  1  0
  1 21  1  0
  3 22  1  0
  6 23  1  0
  7 24  1  0
  8 25  1  0
  9 26  1  0
 11 27  1  0
 14 28  1  0
 15 29  1  0
 16 30  1  0
 17 31  1  0
 18 32  1  0
M  END
$$$$
