
     RDKit          3D

 35 37  0  0  0  0  0  0  0  0999 V2000
    5.3825   -2.5799    1.4471 N   0  0  0  0  0  0  0  0  0  0  0  0
    4.3236   -2.1501    1.2448 C   0  0  0  0  0  0  0  0  0  0  0  0
    3.0390   -1.6015    0.9751 C   0  0  0  0  0  0  0  0  0  0  0  0
    1.9555   -2.0252    1.7984 C   0  0  0  0  0  0  0  0  0  0  0  0
    1.0254   -2.3093    2.4317 N   0  0  0  0  0  0  0  0  0  0  0  0
    2.8576   -0.6953   -0.0248 C   0  0  0  0  0  0  0  0  0  0  0  0
    3.8639   -0.2258   -0.8677 N   0  0  0  0  0  0  0  0  0  0  0  0
    1.5096   -0.1367   -0.2887 C   0  0  0  0  0  0  0  0  0  0  0  0
    0.8751   -0.6784   -1.4501 C   0  0  0  0  0  0  0  0  0  0  0  0
    0.3925   -1.1106   -2.4120 N   0  0  0  0  0  0  0  0  0  0  0  0
    0.9441    0.8433    0.4510 C   0  0  0  0  0  0  0  0  0  0  0  0
    1.7635    1.6132    1.4625 C   0  0  0  0  0  0  0  0  0  0  0  0
    2.8596    1.3313    1.9030 O   0  0  0  0  0  0  0  0  0  0  0  0
    1.0152    2.7257    1.7565 N   0  0  0  0  0  0  0  0  0  0  0  0
   -0.2251    2.6856    1.1412 C   0  0  0  0  0  0  0  0  0  0  0  0
   -1.1429    3.6284    1.3445 N   0  0  0  0  0  0  0  0  0  0  0  0
   -2.3116    3.3620    0.7571 C   0  0  0  0  0  0  0  0  0  0  0  0
   -2.6069    2.2451    0.0674 N   0  0  0  0  0  0  0  0  0  0  0  0
   -1.6365    1.3025   -0.0743 C   0  0  0  0  0  0  0  0  0  0  0  0
   -2.1357    0.0425   -0.6369 C   0  0  0  0  0  0  0  0  0  0  0  0
   -2.7916    0.0274   -1.8829 C   0  0  0  0  0  0  0  0  0  0  0  0
   -3.2961   -1.1610   -2.4180 C   0  0  0  0  0  0  0  0  0  0  0  0
   -3.1612   -2.3473   -1.7069 C   0  0  0  0  0  0  0  0  0  0  0  0
   -3.6541   -3.4768   -2.2360 F   0  0  0  0  0  0  0  0  0  0  0  0
   -2.5370   -2.3557   -0.4630 C   0  0  0  0  0  0  0  0  0  0  0  0
   -2.3773   -3.8191    0.4295 Cl  0  0  0  0  0  0  0  0  0  0  0  0
   -2.0343   -1.1677    0.0765 C   0  0  0  0  0  0  0  0  0  0  0  0
   -0.3621    1.5262    0.3908 C   0  0  0  0  0  0  0  0  0  0  0  0
    4.8184   -0.3678   -0.5306 H   0  0  0  0  0  0  0  0  0  0  0  0
    3.7407    0.7358   -1.1842 H   0  0  0  0  0  0  0  0  0  0  0  0
    1.2841    3.4465    2.4086 H   0  0  0  0  0  0  0  0  0  0  0  0
   -3.1007    4.1000    0.8581 H   0  0  0  0  0  0  0  0  0  0  0  0
   -2.9103    0.9516   -2.4472 H   0  0  0  0  0  0  0  0  0  0  0  0
   -3.7906   -1.1676   -3.3844 H   0  0  0  0  0  0  0  0  0  0  0  0
   -1.5764   -1.1909    1.0640 H   0  0  0  0  0  0  0  0  0  0  0  0
  1  2  3  0
  2  3  1  0
  3  4  1  0
  4  5  3  0
  3  6  2  3
  6  7  1  0
  6  8  1  0
  8  9  1  0
  9 10  3  0
  8 11  2  3
 11 12  1  0
 12 13  2  0
 12 14  1  0
 14 15  1  0
 15 16  2  0
 16 17  1  0
 17 18  2  0
 18 19  1  0
 19 20  1  0
 20 21  1  0
 21 22  2  0
 22 23  1  0
 23 24  1  0
 23 25  2  0
 25 26  1  0
 25 27  1  0
 19 28  2  0
 28 11  1  0
 28 15  1  0
 27 20  2  0
  7 29  1  0
  7 30  1  0
 14 31  1  0
 17 32  1  0
 21 33  1  0
 22 34  1  0
 27 35  1  0
M  END
$$$$
