
     RDKit          3D

 54 57  0  0  0  0  0  0  0  0999 V2000
    4.7807   -0.1455   -2.3807 C   0  0  0  0  0  0  0  0  0  0  0  0
    4.5170    0.6684   -1.1878 N   0  0  0  0  0  0  0  0  0  0  0  0
    3.1668    0.4956   -0.5971 C   0  0  0  0  0  0  0  0  0  0  0  0
    2.1076    1.2640   -1.3959 C   0  0  0  0  0  0  0  0  0  0  0  0
    0.7962    1.1191   -0.7420 N   0  0  0  0  0  0  0  0  0  0  0  0
    0.1815    0.1123   -1.1396 N   0  0  0  0  0  0  0  0  0  0  0  0
   -0.9710    0.0978   -0.4467 N   0  0  0  0  0  0  0  0  0  0  0  0
   -2.0462   -0.6717   -0.9212 C   0  0  0  0  0  0  0  0  0  0  0  0
   -1.8918   -1.6839   -1.8676 C   0  0  0  0  0  0  0  0  0  0  0  0
   -2.9834   -2.4660   -2.2649 C   0  0  0  0  0  0  0  0  0  0  0  0
   -4.2478   -2.2927   -1.7220 C   0  0  0  0  0  0  0  0  0  0  0  0
   -5.2441   -3.0703   -2.1593 N   0  0  0  0  0  0  0  0  0  0  0  0
   -6.4504   -2.8737   -1.6150 C   0  0  0  0  0  0  0  0  0  0  0  0
   -6.7498   -1.9820   -0.6677 N   0  0  0  0  0  0  0  0  0  0  0  0
   -5.7271   -1.2169   -0.2256 C   0  0  0  0  0  0  0  0  0  0  0  0
   -6.1166   -0.2765    0.8370 C   0  0  0  0  0  0  0  0  0  0  0  0
   -5.6326   -0.4189    2.1500 C   0  0  0  0  0  0  0  0  0  0  0  0
   -6.0069    0.4767    3.1551 C   0  0  0  0  0  0  0  0  0  0  0  0
   -6.8787    1.5242    2.8631 C   0  0  0  0  0  0  0  0  0  0  0  0
   -7.3776    1.6672    1.5703 C   0  0  0  0  0  0  0  0  0  0  0  0
   -8.4596    2.9565    1.2122 Cl  0  0  0  0  0  0  0  0  0  0  0  0
   -7.0059    0.7757    0.5640 C   0  0  0  0  0  0  0  0  0  0  0  0
   -4.4204   -1.3136   -0.7367 C   0  0  0  0  0  0  0  0  0  0  0  0
   -3.3116   -0.5126   -0.3450 C   0  0  0  0  0  0  0  0  0  0  0  0
    5.5258    0.5917   -0.2019 C   0  0  0  0  0  0  0  0  0  0  0  0
    6.0082   -0.6414    0.2715 C   0  0  0  0  0  0  0  0  0  0  0  0
    7.0081   -0.6870    1.2476 C   0  0  0  0  0  0  0  0  0  0  0  0
    7.4885   -1.8757    1.7146 O   0  0  0  0  0  0  0  0  0  0  0  0
    7.5528    0.4762    1.7820 C   0  0  0  0  0  0  0  0  0  0  0  0
    7.0912    1.7130    1.3429 C   0  0  0  0  0  0  0  0  0  0  0  0
    6.0837    1.7529    0.3686 C   0  0  0  0  0  0  0  0  0  0  0  0
    5.6307    3.0585   -0.0633 N   0  0  0  0  0  0  0  0  0  0  0  0
    6.4156    3.7255   -0.7530 O   0  0  0  0  0  0  0  0  0  0  0  0
    4.5227    3.4396    0.3422 O   0  0  0  0  0  0  0  0  0  0  0  0
    4.6147   -1.2127   -2.1969 H   0  0  0  0  0  0  0  0  0  0  0  0
    4.1183    0.1616   -3.1962 H   0  0  0  0  0  0  0  0  0  0  0  0
    5.8077   -0.0003   -2.7353 H   0  0  0  0  0  0  0  0  0  0  0  0
    2.9106   -0.5710   -0.5483 H   0  0  0  0  0  0  0  0  0  0  0  0
    3.1434    0.8671    0.4370 H   0  0  0  0  0  0  0  0  0  0  0  0
    2.3635    2.3290   -1.4249 H   0  0  0  0  0  0  0  0  0  0  0  0
    2.0655    0.9218   -2.4370 H   0  0  0  0  0  0  0  0  0  0  0  0
   -1.2178    0.9860   -0.0213 H   0  0  0  0  0  0  0  0  0  0  0  0
   -0.9211   -1.8774   -2.3174 H   0  0  0  0  0  0  0  0  0  0  0  0
   -2.8359   -3.2357   -3.0198 H   0  0  0  0  0  0  0  0  0  0  0  0
   -7.2600   -3.4986   -1.9763 H   0  0  0  0  0  0  0  0  0  0  0  0
   -4.9648   -1.2427    2.3985 H   0  0  0  0  0  0  0  0  0  0  0  0
   -5.6253    0.3518    4.1656 H   0  0  0  0  0  0  0  0  0  0  0  0
   -7.1717    2.2184    3.6465 H   0  0  0  0  0  0  0  0  0  0  0  0
   -7.4113    0.8917   -0.4393 H   0  0  0  0  0  0  0  0  0  0  0  0
   -3.4456    0.2520    0.4175 H   0  0  0  0  0  0  0  0  0  0  0  0
    5.5940   -1.5670   -0.1153 H   0  0  0  0  0  0  0  0  0  0  0  0
    7.0375   -2.6045    1.2575 H   0  0  0  0  0  0  0  0  0  0  0  0
    8.3321    0.4154    2.5375 H   0  0  0  0  0  0  0  0  0  0  0  0
    7.5103    2.6284    1.7532 H   0  0  0  0  0  0  0  0  0  0  0  0
  1  2  1  0
  2  3  1  0
  3  4  1  0
  4  5  1  0
  5  6  2  0
  6  7  1  0
  7  8  1  0
  8  9  1  0
  9 10  2  0
 10 11  1  0
 11 12  2  0
 12 13  1  0
 13 14  2  0
 14 15  1  0
 15 16  1  0
 16 17  2  0
 17 18  1  0
 18 19  2  0
 19 20  1  0
 20 21  1  0
 20 22  2  0
 15 23  2  0
 23 24  1  0
  2 25  1  0
 25 26  1  0
 26 27  2  0
 27 28  1  0
 27 29  1  0
 29 30  2  0
 30 31  1  0
 31 32  1  0
 32 33  2  0
 32 34  1  0
 24  8  2  0
 31 25  2  0
 23 11  1  0
 22 16  1  0
  1 35  1  0
  1 36  1  0
  1 37  1  0
  3 38  1  0
  3 39  1  0
  4 40  1  0
  4 41  1  0
  7 42  1  0
  9 43  1  0
 10 44  1  0
 13 45  1  0
 17 46  1  0
 18 47  1  0
 19 48  1  0
 22 49  1  0
 24 50  1  0
 26 51  1  0
 28 52  1  0
 29 53  1  0
 30 54  1  0
M  CHG  2  32   1  34  -1
M  END
$$$$
