
     RDKit          3D

 33 35  0  0  0  0  0  0  0  0999 V2000
    1.4944   -1.3247    2.6194 C   0  0  0  0  0  0  0  0  0  0  0  0
    0.6118   -0.8100    1.5382 C   0  0  0  0  0  0  0  0  0  0  0  0
   -0.8061   -0.9377    1.4909 C   0  0  0  0  0  0  0  0  0  0  0  0
   -1.2718   -0.3156    0.3467 C   0  0  0  0  0  0  0  0  0  0  0  0
   -2.6317   -0.1710   -0.1760 C   0  0  0  0  0  0  0  0  0  0  0  0
   -3.5774   -1.1867    0.0265 C   0  0  0  0  0  0  0  0  0  0  0  0
   -4.8787   -1.0641   -0.4685 C   0  0  0  0  0  0  0  0  0  0  0  0
   -5.2520    0.0798   -1.1705 C   0  0  0  0  0  0  0  0  0  0  0  0
   -4.3207    1.0958   -1.3708 C   0  0  0  0  0  0  0  0  0  0  0  0
   -4.8258    2.6545   -2.3158 Br  0  0  0  0  0  0  0  0  0  0  0  0
   -3.0190    0.9780   -0.8793 C   0  0  0  0  0  0  0  0  0  0  0  0
   -0.1593    0.1706   -0.3015 N   0  0  0  0  0  0  0  0  0  0  0  0
    0.9913   -0.1131    0.3997 C   0  0  0  0  0  0  0  0  0  0  0  0
    2.3073    0.2887   -0.0922 C   0  0  0  0  0  0  0  0  0  0  0  0
    3.3298   -0.6561   -0.2380 C   0  0  0  0  0  0  0  0  0  0  0  0
    4.5851   -0.2743   -0.7170 C   0  0  0  0  0  0  0  0  0  0  0  0
    4.8284    1.0561   -1.0530 C   0  0  0  0  0  0  0  0  0  0  0  0
    3.8181    2.0055   -0.9102 C   0  0  0  0  0  0  0  0  0  0  0  0
    2.5621    1.6235   -0.4325 C   0  0  0  0  0  0  0  0  0  0  0  0
    2.2609   -0.5890    2.8832 H   0  0  0  0  0  0  0  0  0  0  0  0
    1.9897   -2.2469    2.3000 H   0  0  0  0  0  0  0  0  0  0  0  0
    0.9186   -1.5445    3.5243 H   0  0  0  0  0  0  0  0  0  0  0  0
   -1.4247   -1.4266    2.2332 H   0  0  0  0  0  0  0  0  0  0  0  0
   -3.3036   -2.0921    0.5641 H   0  0  0  0  0  0  0  0  0  0  0  0
   -5.5978   -1.8630   -0.3060 H   0  0  0  0  0  0  0  0  0  0  0  0
   -6.2653    0.1701   -1.5524 H   0  0  0  0  0  0  0  0  0  0  0  0
   -2.3169    1.7933   -1.0289 H   0  0  0  0  0  0  0  0  0  0  0  0
   -0.1733    0.6380   -1.1967 H   0  0  0  0  0  0  0  0  0  0  0  0
    3.1507   -1.6994    0.0105 H   0  0  0  0  0  0  0  0  0  0  0  0
    5.3710   -1.0166   -0.8284 H   0  0  0  0  0  0  0  0  0  0  0  0
    5.8060    1.3533   -1.4237 H   0  0  0  0  0  0  0  0  0  0  0  0
    4.0087    3.0447   -1.1651 H   0  0  0  0  0  0  0  0  0  0  0  0
    1.7906    2.3797   -0.3101 H   0  0  0  0  0  0  0  0  0  0  0  0
  1  2  1  0
  2  3  1  0
  3  4  2  0
  4  5  1  0
  5  6  2  0
  6  7  1  0
  7  8  2  0
  8  9  1  0
  9 10  1  0
  9 11  2  0
  4 12  1  0
 12 13  1  0
 13 14  1  0
 14 15  2  0
 15 16  1  0
 16 17  2  0
 17 18  1  0
 18 19  2  0
 13  2  2  0
 19 14  1  0
 11  5  1  0
  1 20  1  0
  1 21  1  0
  1 22  1  0
  3 23  1  0
  6 24  1  0
  7 25  1  0
  8 26  1  0
 11 27  1  0
 12 28  1  0
 15 29  1  0
 16 30  1  0
 17 31  1  0
 18 32  1  0
 19 33  1  0
M  END
$$$$
