
     RDKit          3D

 36 37  0  0  0  0  0  0  0  0999 V2000
   -1.9031   -2.1643    1.9654 C   0  0  0  0  0  0  0  0  0  0  0  0
   -1.1060   -1.1264    1.2555 C   0  0  0  0  0  0  0  0  0  0  0  0
    0.2922   -0.9048    1.4146 C   0  0  0  0  0  0  0  0  0  0  0  0
    0.6636    0.1254    0.5771 C   0  0  0  0  0  0  0  0  0  0  0  0
    1.8798    0.7964    0.2967 C   0  0  0  0  0  0  0  0  0  0  0  0
    3.0450    0.1538    0.0554 C   0  0  0  0  0  0  0  0  0  0  0  0
    3.1774   -1.2265   -0.0625 N   0  0  0  0  0  0  0  0  0  0  0  0
    4.2580    0.9517   -0.2198 C   0  0  0  0  0  0  0  0  0  0  0  0
    4.1553    1.8957   -1.2952 C   0  0  0  0  0  0  0  0  0  0  0  0
    4.0547    2.6792   -2.1442 N   0  0  0  0  0  0  0  0  0  0  0  0
    5.4181    0.8209    0.4632 C   0  0  0  0  0  0  0  0  0  0  0  0
    6.5659    1.6034    0.1497 C   0  0  0  0  0  0  0  0  0  0  0  0
    7.4993    2.2448   -0.0989 N   0  0  0  0  0  0  0  0  0  0  0  0
    5.5366   -0.0953    1.5442 C   0  0  0  0  0  0  0  0  0  0  0  0
    5.5868   -0.8663    2.4100 N   0  0  0  0  0  0  0  0  0  0  0  0
   -0.4725    0.5522   -0.0639 N   0  0  0  0  0  0  0  0  0  0  0  0
   -1.5601   -0.2029    0.3216 C   0  0  0  0  0  0  0  0  0  0  0  0
   -2.8966    0.0434   -0.2158 C   0  0  0  0  0  0  0  0  0  0  0  0
   -3.1077    0.0851   -1.6022 C   0  0  0  0  0  0  0  0  0  0  0  0
   -4.3848    0.3213   -2.1164 C   0  0  0  0  0  0  0  0  0  0  0  0
   -5.4522    0.5167   -1.2459 C   0  0  0  0  0  0  0  0  0  0  0  0
   -6.6697    0.7418   -1.7610 F   0  0  0  0  0  0  0  0  0  0  0  0
   -5.2568    0.4784    0.1324 C   0  0  0  0  0  0  0  0  0  0  0  0
   -6.5748    0.7224    1.2131 Cl  0  0  0  0  0  0  0  0  0  0  0  0
   -3.9815    0.2426    0.6489 C   0  0  0  0  0  0  0  0  0  0  0  0
   -2.4634   -1.7150    2.7913 H   0  0  0  0  0  0  0  0  0  0  0  0
   -1.2531   -2.9422    2.3793 H   0  0  0  0  0  0  0  0  0  0  0  0
   -2.6102   -2.6490    1.2848 H   0  0  0  0  0  0  0  0  0  0  0  0
    0.9510   -1.4444    2.0843 H   0  0  0  0  0  0  0  0  0  0  0  0
    1.8420    1.8855    0.2986 H   0  0  0  0  0  0  0  0  0  0  0  0
    3.6917   -1.6367    0.7198 H   0  0  0  0  0  0  0  0  0  0  0  0
    2.2618   -1.6830   -0.0609 H   0  0  0  0  0  0  0  0  0  0  0  0
   -0.5162    1.3096   -0.7327 H   0  0  0  0  0  0  0  0  0  0  0  0
   -2.2837   -0.0855   -2.2922 H   0  0  0  0  0  0  0  0  0  0  0  0
   -4.5552    0.3481   -3.1884 H   0  0  0  0  0  0  0  0  0  0  0  0
   -3.8315    0.2239    1.7256 H   0  0  0  0  0  0  0  0  0  0  0  0
  1  2  1  0
  2  3  1  0
  3  4  2  0
  4  5  1  0
  5  6  2  3
  6  7  1  0
  6  8  1  0
  8  9  1  0
  9 10  3  0
  8 11  2  3
 11 12  1  0
 12 13  3  0
 11 14  1  0
 14 15  3  0
  4 16  1  0
 16 17  1  0
 17 18  1  0
 18 19  1  0
 19 20  2  0
 20 21  1  0
 21 22  1  0
 21 23  2  0
 23 24  1  0
 23 25  1  0
 17  2  2  0
 25 18  2  0
  1 26  1  0
  1 27  1  0
  1 28  1  0
  3 29  1  0
  5 30  1  0
  7 31  1  0
  7 32  1  0
 16 33  1  0
 19 34  1  0
 20 35  1  0
 25 36  1  0
M  END
$$$$
