
     RDKit          3D

 15 15  0  0  0  0  0  0  0  0999 V2000
    2.5460   -1.6540    0.0163 O   0  0  0  0  0  0  0  0  0  0  0  0
    2.0540   -0.5474   -0.1034 C   0  0  0  0  0  0  0  0  0  0  0  0
    2.8166    0.5357   -0.3323 O   0  0  0  0  0  0  0  0  0  0  0  0
    0.6090   -0.2267   -0.0211 C   0  0  0  0  0  0  0  0  0  0  0  0
   -0.2899   -1.2760    0.2150 C   0  0  0  0  0  0  0  0  0  0  0  0
   -1.6600   -1.0219    0.3004 C   0  0  0  0  0  0  0  0  0  0  0  0
   -2.1365    0.2804    0.1504 C   0  0  0  0  0  0  0  0  0  0  0  0
   -1.2404    1.3234   -0.0846 C   0  0  0  0  0  0  0  0  0  0  0  0
   -1.8927    3.0869   -0.2872 Br  0  0  0  0  0  0  0  0  0  0  0  0
    0.1299    1.0801   -0.1716 C   0  0  0  0  0  0  0  0  0  0  0  0
    3.7297    0.1799   -0.3616 H   0  0  0  0  0  0  0  0  0  0  0  0
    0.0755   -2.2949    0.3331 H   0  0  0  0  0  0  0  0  0  0  0  0
   -2.3542   -1.8387    0.4838 H   0  0  0  0  0  0  0  0  0  0  0  0
   -3.2047    0.4717    0.2180 H   0  0  0  0  0  0  0  0  0  0  0  0
    0.8177    1.9014   -0.3550 H   0  0  0  0  0  0  0  0  0  0  0  0
  1  2  2  0
  2  3  1  0
  2  4  1  0
  4  5  2  0
  5  6  1  0
  6  7  2  0
  7  8  1  0
  8  9  1  0
  8 10  2  0
 10  4  1  0
  3 11  1  0
  5 12  1  0
  6 13  1  0
  7 14  1  0
 10 15  1  0
M  END
$$$$
