
     RDKit          3D

 36 37  0  0  0  0  0  0  0  0999 V2000
   -3.5540    0.5461    0.6439 C   0  0  0  0  0  0  0  0  0  0  0  0
   -2.9104   -0.7793    0.2452 N   0  0  0  0  0  0  0  0  0  0  0  0
   -2.7723   -0.8507   -1.2662 C   0  0  0  0  0  0  0  0  0  0  0  0
   -3.8624   -1.9054    0.6772 C   0  0  0  0  0  0  0  0  0  0  0  0
   -1.5624   -1.0191    0.9792 C   0  0  0  0  0  0  0  0  0  0  0  0
   -0.5255    0.1263    1.0274 C   0  0  0  0  0  0  0  0  0  0  0  0
   -1.0697    1.2781    1.6886 O   0  0  0  0  0  0  0  0  0  0  0  0
    0.0640    0.5336   -0.3251 C   0  0  0  0  0  0  0  0  0  0  0  0
    1.2811    1.2676   -0.1330 O   0  0  0  0  0  0  0  0  0  0  0  0
    2.4085    0.4689   -0.0588 C   0  0  0  0  0  0  0  0  0  0  0  0
    2.2689   -0.8646    0.1103 N   0  0  0  0  0  0  0  0  0  0  0  0
    3.3966   -1.5943    0.1972 C   0  0  0  0  0  0  0  0  0  0  0  0
    4.6568   -1.1588    0.1482 N   0  0  0  0  0  0  0  0  0  0  0  0
    4.7405    0.1728   -0.0068 C   0  0  0  0  0  0  0  0  0  0  0  0
    6.2522    0.9545   -0.0875 S   0  0  0  0  0  0  0  0  0  0  0  0
    5.5156    2.4888   -0.2683 C   0  0  0  0  0  0  0  0  0  0  0  0
    4.1398    2.4020   -0.2672 C   0  0  0  0  0  0  0  0  0  0  0  0
    3.6768    1.0529   -0.1154 C   0  0  0  0  0  0  0  0  0  0  0  0
   -4.5704    0.5673    0.2375 H   0  0  0  0  0  0  0  0  0  0  0  0
   -3.5865    0.6049    1.7353 H   0  0  0  0  0  0  0  0  0  0  0  0
   -2.9807    1.3659    0.2052 H   0  0  0  0  0  0  0  0  0  0  0  0
   -2.2198    0.0193   -1.6200 H   0  0  0  0  0  0  0  0  0  0  0  0
   -3.7740   -0.8436   -1.7075 H   0  0  0  0  0  0  0  0  0  0  0  0
   -2.2500   -1.7759   -1.5256 H   0  0  0  0  0  0  0  0  0  0  0  0
   -3.4043   -2.8624    0.4104 H   0  0  0  0  0  0  0  0  0  0  0  0
   -4.0143   -1.8373    1.7586 H   0  0  0  0  0  0  0  0  0  0  0  0
   -4.8149   -1.7784    0.1536 H   0  0  0  0  0  0  0  0  0  0  0  0
   -1.1202   -1.9201    0.5379 H   0  0  0  0  0  0  0  0  0  0  0  0
   -1.8401   -1.2492    2.0158 H   0  0  0  0  0  0  0  0  0  0  0  0
    0.2793   -0.2205    1.6860 H   0  0  0  0  0  0  0  0  0  0  0  0
   -0.3319    1.9126    1.7982 H   0  0  0  0  0  0  0  0  0  0  0  0
   -0.6111    1.2382   -0.8214 H   0  0  0  0  0  0  0  0  0  0  0  0
    0.2050   -0.3146   -1.0060 H   0  0  0  0  0  0  0  0  0  0  0  0
    3.2705   -2.6658    0.3241 H   0  0  0  0  0  0  0  0  0  0  0  0
    6.1271    3.3762   -0.3670 H   0  0  0  0  0  0  0  0  0  0  0  0
    3.4919    3.2640   -0.3721 H   0  0  0  0  0  0  0  0  0  0  0  0
  1  2  1  0
  2  3  1  0
  2  4  1  0
  2  5  1  0
  5  6  1  0
  6  7  1  0
  6  8  1  0
  8  9  1  0
  9 10  1  0
 10 11  1  0
 11 12  2  0
 12 13  1  0
 13 14  2  0
 14 15  1  0
 15 16  1  0
 16 17  2  0
 17 18  1  0
 18 10  2  0
 18 14  1  0
  1 19  1  0
  1 20  1  0
  1 21  1  0
  3 22  1  0
  3 23  1  0
  3 24  1  0
  4 25  1  0
  4 26  1  0
  4 27  1  0
  5 28  1  0
  5 29  1  0
  6 30  1  0
  7 31  1  0
  8 32  1  0
  8 33  1  0
 12 34  1  0
 16 35  1  0
 17 36  1  0
M  CHG  1   2   1
M  END
$$$$
