
     RDKit          3D

 53 55  0  0  0  0  0  0  0  0999 V2000
    7.3425    0.9591   -1.2047 C   0  0  0  0  0  0  0  0  0  0  0  0
    6.3722   -0.1935   -0.9577 C   0  0  0  0  0  0  0  0  0  0  0  0
    5.3107    0.1687   -0.0003 N   0  0  0  0  0  0  0  0  0  0  0  0
    4.3359    1.0962   -0.6036 C   0  0  0  0  0  0  0  0  0  0  0  0
    4.1395    2.3089    0.2964 C   0  0  0  0  0  0  0  0  0  0  0  0
    4.6622   -1.0625    0.5139 C   0  0  0  0  0  0  0  0  0  0  0  0
    3.7565   -0.8710    1.7443 C   0  0  0  0  0  0  0  0  0  0  0  0
    2.4057   -0.4320    1.3569 N   0  0  0  0  0  0  0  0  0  0  0  0
    1.6566   -1.3903    1.0932 N   0  0  0  0  0  0  0  0  0  0  0  0
    0.4878   -0.8409    0.7168 N   0  0  0  0  0  0  0  0  0  0  0  0
   -0.6728   -1.6312    0.7158 C   0  0  0  0  0  0  0  0  0  0  0  0
   -0.6371   -3.0248    0.7481 C   0  0  0  0  0  0  0  0  0  0  0  0
   -1.8172   -3.7744    0.6703 C   0  0  0  0  0  0  0  0  0  0  0  0
   -3.0603   -3.1749    0.5366 C   0  0  0  0  0  0  0  0  0  0  0  0
   -4.1433   -3.9556    0.4563 N   0  0  0  0  0  0  0  0  0  0  0  0
   -5.3237   -3.3445    0.3041 C   0  0  0  0  0  0  0  0  0  0  0  0
   -5.5226   -2.0258    0.2323 N   0  0  0  0  0  0  0  0  0  0  0  0
   -4.4186   -1.2536    0.3326 C   0  0  0  0  0  0  0  0  0  0  0  0
   -4.7117    0.1868    0.2712 C   0  0  0  0  0  0  0  0  0  0  0  0
   -4.5636    1.0072    1.4020 C   0  0  0  0  0  0  0  0  0  0  0  0
   -4.8561    2.3728    1.3428 C   0  0  0  0  0  0  0  0  0  0  0  0
   -5.3115    2.9435    0.1561 C   0  0  0  0  0  0  0  0  0  0  0  0
   -5.5686    4.2862    0.2187 O   0  0  0  0  0  0  0  0  0  0  0  0
   -5.4738    2.1387   -0.9783 C   0  0  0  0  0  0  0  0  0  0  0  0
   -5.9472    2.7051   -2.2429 N   0  0  0  0  0  0  0  0  0  0  0  0
   -6.3121    3.8926   -2.2352 O   0  0  0  0  0  0  0  0  0  0  0  0
   -5.9470    1.9777   -3.2455 O   0  0  0  0  0  0  0  0  0  0  0  0
   -5.1784    0.7664   -0.9204 C   0  0  0  0  0  0  0  0  0  0  0  0
   -3.1225   -1.7781    0.4795 C   0  0  0  0  0  0  0  0  0  0  0  0
   -1.9210   -1.0199    0.5530 C   0  0  0  0  0  0  0  0  0  0  0  0
    6.8633    1.8095   -1.6988 H   0  0  0  0  0  0  0  0  0  0  0  0
    7.7798    1.3107   -0.2643 H   0  0  0  0  0  0  0  0  0  0  0  0
    8.1618    0.6231   -1.8493 H   0  0  0  0  0  0  0  0  0  0  0  0
    5.9483   -0.5465   -1.9058 H   0  0  0  0  0  0  0  0  0  0  0  0
    6.9724   -1.0181   -0.5529 H   0  0  0  0  0  0  0  0  0  0  0  0
    4.6726    1.4644   -1.5802 H   0  0  0  0  0  0  0  0  0  0  0  0
    3.3734    0.6143   -0.8089 H   0  0  0  0  0  0  0  0  0  0  0  0
    5.0826    2.8470    0.4412 H   0  0  0  0  0  0  0  0  0  0  0  0
    3.4265    3.0025   -0.1612 H   0  0  0  0  0  0  0  0  0  0  0  0
    3.7521    2.0323    1.2808 H   0  0  0  0  0  0  0  0  0  0  0  0
    5.4584   -1.7414    0.8465 H   0  0  0  0  0  0  0  0  0  0  0  0
    4.1248   -1.5826   -0.2897 H   0  0  0  0  0  0  0  0  0  0  0  0
    3.7003   -1.8144    2.3037 H   0  0  0  0  0  0  0  0  0  0  0  0
    4.1906   -0.1346    2.4293 H   0  0  0  0  0  0  0  0  0  0  0  0
    0.3694    0.1285    0.9916 H   0  0  0  0  0  0  0  0  0  0  0  0
    0.3105   -3.5518    0.8308 H   0  0  0  0  0  0  0  0  0  0  0  0
   -1.7574   -4.8601    0.7057 H   0  0  0  0  0  0  0  0  0  0  0  0
   -6.1999   -3.9796    0.2331 H   0  0  0  0  0  0  0  0  0  0  0  0
   -4.2298    0.5802    2.3469 H   0  0  0  0  0  0  0  0  0  0  0  0
   -4.7379    2.9906    2.2307 H   0  0  0  0  0  0  0  0  0  0  0  0
   -5.9432    4.5958   -0.6336 H   0  0  0  0  0  0  0  0  0  0  0  0
   -5.3153    0.1296   -1.7946 H   0  0  0  0  0  0  0  0  0  0  0  0
   -1.9641    0.0641    0.4721 H   0  0  0  0  0  0  0  0  0  0  0  0
  1  2  1  0
  2  3  1  0
  3  4  1  0
  4  5  1  0
  3  6  1  0
  6  7  1  0
  7  8  1  0
  8  9  2  0
  9 10  1  0
 10 11  1  0
 11 12  1  0
 12 13  2  0
 13 14  1  0
 14 15  2  0
 15 16  1  0
 16 17  2  0
 17 18  1  0
 18 19  1  0
 19 20  1  0
 20 21  2  0
 21 22  1  0
 22 23  1  0
 22 24  2  0
 24 25  1  0
 25 26  2  0
 25 27  1  0
 24 28  1  0
 18 29  2  0
 29 30  1  0
 30 11  2  0
 29 14  1  0
 28 19  2  0
  1 31  1  0
  1 32  1  0
  1 33  1  0
  2 34  1  0
  2 35  1  0
  4 36  1  0
  4 37  1  0
  5 38  1  0
  5 39  1  0
  5 40  1  0
  6 41  1  0
  6 42  1  0
  7 43  1  0
  7 44  1  0
 10 45  1  0
 12 46  1  0
 13 47  1  0
 16 48  1  0
 20 49  1  0
 21 50  1  0
 23 51  1  0
 28 52  1  0
 30 53  1  0
M  CHG  2  25   1  27  -1
M  END
$$$$
