
     RDKit          3D

 35 35  0  0  0  0  0  0  0  0999 V2000
   -4.1696    0.6897    0.8278 C   0  0  0  0  0  0  0  0  0  0  0  0
   -3.1351   -0.1107    0.0365 N   0  0  0  0  0  0  0  0  0  0  0  0
   -3.3709    0.1220   -1.4481 C   0  0  0  0  0  0  0  0  0  0  0  0
   -3.3370   -1.5930    0.3532 C   0  0  0  0  0  0  0  0  0  0  0  0
   -1.7237    0.3770    0.4726 C   0  0  0  0  0  0  0  0  0  0  0  0
   -0.5440   -0.3711   -0.1793 C   0  0  0  0  0  0  0  0  0  0  0  0
   -0.5172   -1.7317    0.2734 O   0  0  0  0  0  0  0  0  0  0  0  0
    0.7853    0.2981    0.2005 C   0  0  0  0  0  0  0  0  0  0  0  0
    1.8100   -0.3793   -0.5456 O   0  0  0  0  0  0  0  0  0  0  0  0
    3.0602    0.0174   -0.1358 C   0  0  0  0  0  0  0  0  0  0  0  0
    3.6984    1.1041   -0.7466 C   0  0  0  0  0  0  0  0  0  0  0  0
    2.9265    2.0137   -1.9956 Cl  0  0  0  0  0  0  0  0  0  0  0  0
    4.9874    1.4723   -0.3541 C   0  0  0  0  0  0  0  0  0  0  0  0
    5.6511    0.7461    0.6364 C   0  0  0  0  0  0  0  0  0  0  0  0
    5.0304   -0.3543    1.2297 C   0  0  0  0  0  0  0  0  0  0  0  0
    3.7419   -0.7235    0.8383 C   0  0  0  0  0  0  0  0  0  0  0  0
    3.0153   -2.1042    1.5800 Cl  0  0  0  0  0  0  0  0  0  0  0  0
   -4.0283    1.7514    0.6048 H   0  0  0  0  0  0  0  0  0  0  0  0
   -5.1698    0.3677    0.5227 H   0  0  0  0  0  0  0  0  0  0  0  0
   -4.0155    0.4962    1.8935 H   0  0  0  0  0  0  0  0  0  0  0  0
   -3.1821    1.1769   -1.6668 H   0  0  0  0  0  0  0  0  0  0  0  0
   -4.4095   -0.1356   -1.6776 H   0  0  0  0  0  0  0  0  0  0  0  0
   -2.6972   -0.5181   -2.0225 H   0  0  0  0  0  0  0  0  0  0  0  0
   -4.4004   -1.8246    0.2347 H   0  0  0  0  0  0  0  0  0  0  0  0
   -2.7654   -2.1937   -0.3578 H   0  0  0  0  0  0  0  0  0  0  0  0
   -3.0246   -1.7750    1.3852 H   0  0  0  0  0  0  0  0  0  0  0  0
   -1.6834    1.4457    0.2315 H   0  0  0  0  0  0  0  0  0  0  0  0
   -1.6892    0.2549    1.5621 H   0  0  0  0  0  0  0  0  0  0  0  0
   -0.6364   -0.3946   -1.2693 H   0  0  0  0  0  0  0  0  0  0  0  0
    0.3564   -2.0982    0.0173 H   0  0  0  0  0  0  0  0  0  0  0  0
    0.9636    0.1914    1.2778 H   0  0  0  0  0  0  0  0  0  0  0  0
    0.7655    1.3603   -0.0668 H   0  0  0  0  0  0  0  0  0  0  0  0
    5.4871    2.3175   -0.8233 H   0  0  0  0  0  0  0  0  0  0  0  0
    6.6583    1.0298    0.9364 H   0  0  0  0  0  0  0  0  0  0  0  0
    5.5618   -0.9246    1.9888 H   0  0  0  0  0  0  0  0  0  0  0  0
  1  2  1  0
  2  3  1  0
  2  4  1  0
  2  5  1  0
  5  6  1  0
  6  7  1  0
  6  8  1  0
  8  9  1  0
  9 10  1  0
 10 11  2  0
 11 12  1  0
 11 13  1  0
 13 14  2  0
 14 15  1  0
 15 16  2  0
 16 17  1  0
 16 10  1  0
  1 18  1  0
  1 19  1  0
  1 20  1  0
  3 21  1  0
  3 22  1  0
  3 23  1  0
  4 24  1  0
  4 25  1  0
  4 26  1  0
  5 27  1  0
  5 28  1  0
  6 29  1  0
  7 30  1  0
  8 31  1  0
  8 32  1  0
 13 33  1  0
 14 34  1  0
 15 35  1  0
M  CHG  1   2   1
M  END
$$$$
