
     RDKit          3D

 42 45  0  0  0  0  0  0  0  0999 V2000
   -4.5846    1.9692   -3.3981 C   0  0  0  0  0  0  0  0  0  0  0  0
   -4.4615    2.4665   -2.1028 C   0  0  0  0  0  0  0  0  0  0  0  0
   -4.2326    1.5922   -1.0375 C   0  0  0  0  0  0  0  0  0  0  0  0
   -4.1189    0.2086   -1.2546 C   0  0  0  0  0  0  0  0  0  0  0  0
   -3.8620   -0.7153   -0.1399 C   0  0  0  0  0  0  0  0  0  0  0  0
   -4.9340   -1.4598    0.2100 N   0  0  0  0  0  0  0  0  0  0  0  0
   -4.7561   -2.3002    1.2321 C   0  0  0  0  0  0  0  0  0  0  0  0
   -3.6235   -2.4733    1.9243 N   0  0  0  0  0  0  0  0  0  0  0  0
   -2.5688   -1.7382    1.5538 C   0  0  0  0  0  0  0  0  0  0  0  0
   -1.3698   -1.9026    2.2317 C   0  0  0  0  0  0  0  0  0  0  0  0
   -0.2202   -1.1771    1.8933 C   0  0  0  0  0  0  0  0  0  0  0  0
   -0.2465   -0.2378    0.8630 C   0  0  0  0  0  0  0  0  0  0  0  0
    0.8966    0.4577    0.4370 N   0  0  0  0  0  0  0  0  0  0  0  0
    1.9799    0.4938    1.2336 N   0  0  0  0  0  0  0  0  0  0  0  0
    2.6955    1.4095    0.7861 N   0  0  0  0  0  0  0  0  0  0  0  0
    3.9568    1.5555    1.5401 C   0  0  0  0  0  0  0  0  0  0  0  0
    5.0881    0.6534    1.0943 C   0  0  0  0  0  0  0  0  0  0  0  0
    5.0995    0.0500   -0.1627 C   0  0  0  0  0  0  0  0  0  0  0  0
    6.1862   -0.7427   -0.5253 C   0  0  0  0  0  0  0  0  0  0  0  0
    7.2374   -0.9071    0.3660 C   0  0  0  0  0  0  0  0  0  0  0  0
    7.1593   -0.2661    1.5893 C   0  0  0  0  0  0  0  0  0  0  0  0
    6.1190    0.5092    1.9682 N   0  0  0  0  0  0  0  0  0  0  0  0
   -1.4450   -0.0858    0.1572 C   0  0  0  0  0  0  0  0  0  0  0  0
   -2.6158   -0.8157    0.5022 C   0  0  0  0  0  0  0  0  0  0  0  0
   -4.2614   -0.2757   -2.5644 C   0  0  0  0  0  0  0  0  0  0  0  0
   -4.4875    0.5987   -3.6296 C   0  0  0  0  0  0  0  0  0  0  0  0
   -4.7671    2.6487   -4.2267 H   0  0  0  0  0  0  0  0  0  0  0  0
   -4.5503    3.5343   -1.9196 H   0  0  0  0  0  0  0  0  0  0  0  0
   -4.1509    1.9940   -0.0296 H   0  0  0  0  0  0  0  0  0  0  0  0
   -5.6095   -2.8995    1.5296 H   0  0  0  0  0  0  0  0  0  0  0  0
   -1.3187   -2.6253    3.0436 H   0  0  0  0  0  0  0  0  0  0  0  0
    0.6970   -1.3654    2.4469 H   0  0  0  0  0  0  0  0  0  0  0  0
    0.7282    1.3033   -0.0974 H   0  0  0  0  0  0  0  0  0  0  0  0
    4.2947    2.5913    1.4166 H   0  0  0  0  0  0  0  0  0  0  0  0
    3.7769    1.4074    2.6128 H   0  0  0  0  0  0  0  0  0  0  0  0
    4.2753    0.1827   -0.8564 H   0  0  0  0  0  0  0  0  0  0  0  0
    6.2074   -1.2288   -1.4962 H   0  0  0  0  0  0  0  0  0  0  0  0
    8.0970   -1.5176    0.1135 H   0  0  0  0  0  0  0  0  0  0  0  0
    7.9567   -0.3594    2.3209 H   0  0  0  0  0  0  0  0  0  0  0  0
   -1.4755    0.6053   -0.6829 H   0  0  0  0  0  0  0  0  0  0  0  0
   -4.1973   -1.3451   -2.7565 H   0  0  0  0  0  0  0  0  0  0  0  0
   -4.5940    0.2073   -4.6378 H   0  0  0  0  0  0  0  0  0  0  0  0
  1  2  2  0
  2  3  1  0
  3  4  2  0
  4  5  1  0
  5  6  1  0
  6  7  2  0
  7  8  1  0
  8  9  2  0
  9 10  1  0
 10 11  2  0
 11 12  1  0
 12 13  1  0
 13 14  1  0
 14 15  2  0
 15 16  1  0
 16 17  1  0
 17 18  2  0
 18 19  1  0
 19 20  2  0
 20 21  1  0
 21 22  2  0
 12 23  2  0
 23 24  1  0
  4 25  1  0
 25 26  2  0
 26  1  1  0
 24  5  2  0
 24  9  1  0
 22 17  1  0
  1 27  1  0
  2 28  1  0
  3 29  1  0
  7 30  1  0
 10 31  1  0
 11 32  1  0
 13 33  1  0
 16 34  1  0
 16 35  1  0
 18 36  1  0
 19 37  1  0
 20 38  1  0
 21 39  1  0
 23 40  1  0
 25 41  1  0
 26 42  1  0
M  END
$$$$
