
     RDKit          3D

 46 49  0  0  0  0  0  0  0  0999 V2000
    7.5982    0.1164   -1.2046 C   0  0  0  0  0  0  0  0  0  0  0  0
    6.3929    0.9907   -1.0187 C   0  0  0  0  0  0  0  0  0  0  0  0
    6.1256    2.0325   -1.9126 C   0  0  0  0  0  0  0  0  0  0  0  0
    4.9911    2.8272   -1.7497 C   0  0  0  0  0  0  0  0  0  0  0  0
    4.1080    2.5804   -0.6979 C   0  0  0  0  0  0  0  0  0  0  0  0
    4.3432    1.5267    0.1957 C   0  0  0  0  0  0  0  0  0  0  0  0
    3.4113    1.2696    1.3591 C   0  0  0  0  0  0  0  0  0  0  0  0
    1.9792    1.3497    1.0154 N   0  0  0  0  0  0  0  0  0  0  0  0
    1.5519    0.2856    0.5306 N   0  0  0  0  0  0  0  0  0  0  0  0
    0.2416    0.4907    0.2979 N   0  0  0  0  0  0  0  0  0  0  0  0
   -0.5979   -0.6252    0.1435 C   0  0  0  0  0  0  0  0  0  0  0  0
   -0.1167   -1.8803   -0.2251 C   0  0  0  0  0  0  0  0  0  0  0  0
   -0.9930   -2.9542   -0.4179 C   0  0  0  0  0  0  0  0  0  0  0  0
   -2.3654   -2.8167   -0.2774 C   0  0  0  0  0  0  0  0  0  0  0  0
   -3.1366   -3.8924   -0.4638 N   0  0  0  0  0  0  0  0  0  0  0  0
   -4.4551   -3.7251   -0.3127 C   0  0  0  0  0  0  0  0  0  0  0  0
   -5.0734   -2.5840   -0.0020 N   0  0  0  0  0  0  0  0  0  0  0  0
   -4.2804   -1.5015    0.1617 C   0  0  0  0  0  0  0  0  0  0  0  0
   -5.0245   -0.2716    0.4818 C   0  0  0  0  0  0  0  0  0  0  0  0
   -5.0552    0.8174   -0.4062 C   0  0  0  0  0  0  0  0  0  0  0  0
   -5.7635    1.9799   -0.0904 C   0  0  0  0  0  0  0  0  0  0  0  0
   -6.4587    2.0674    1.1140 C   0  0  0  0  0  0  0  0  0  0  0  0
   -6.4529    0.9922    2.0006 C   0  0  0  0  0  0  0  0  0  0  0  0
   -5.7454   -0.1695    1.6842 C   0  0  0  0  0  0  0  0  0  0  0  0
   -2.8790   -1.5561    0.0497 C   0  0  0  0  0  0  0  0  0  0  0  0
   -1.9841   -0.4690    0.2520 C   0  0  0  0  0  0  0  0  0  0  0  0
    5.4928    0.7394    0.0266 C   0  0  0  0  0  0  0  0  0  0  0  0
    7.3250   -0.7856   -1.7614 H   0  0  0  0  0  0  0  0  0  0  0  0
    8.3861    0.6447   -1.7538 H   0  0  0  0  0  0  0  0  0  0  0  0
    8.0173   -0.1768   -0.2359 H   0  0  0  0  0  0  0  0  0  0  0  0
    6.8013    2.2351   -2.7417 H   0  0  0  0  0  0  0  0  0  0  0  0
    4.7925    3.6364   -2.4476 H   0  0  0  0  0  0  0  0  0  0  0  0
    3.2277    3.2099   -0.5852 H   0  0  0  0  0  0  0  0  0  0  0  0
    3.6289    0.2945    1.8188 H   0  0  0  0  0  0  0  0  0  0  0  0
    3.6169    2.0241    2.1271 H   0  0  0  0  0  0  0  0  0  0  0  0
   -0.1557    1.2740    0.8054 H   0  0  0  0  0  0  0  0  0  0  0  0
    0.9500   -2.0449   -0.3664 H   0  0  0  0  0  0  0  0  0  0  0  0
   -0.5856   -3.9266   -0.6893 H   0  0  0  0  0  0  0  0  0  0  0  0
   -5.0801   -4.6004   -0.4550 H   0  0  0  0  0  0  0  0  0  0  0  0
   -4.5313    0.7619   -1.3599 H   0  0  0  0  0  0  0  0  0  0  0  0
   -5.7791    2.8122   -0.7886 H   0  0  0  0  0  0  0  0  0  0  0  0
   -7.0142    2.9696    1.3575 H   0  0  0  0  0  0  0  0  0  0  0  0
   -7.0053    1.0529    2.9352 H   0  0  0  0  0  0  0  0  0  0  0  0
   -5.7588   -1.0075    2.3795 H   0  0  0  0  0  0  0  0  0  0  0  0
   -2.3811    0.5086    0.5113 H   0  0  0  0  0  0  0  0  0  0  0  0
    5.6915   -0.0790    0.7162 H   0  0  0  0  0  0  0  0  0  0  0  0
  1  2  1  0
  2  3  1  0
  3  4  2  0
  4  5  1  0
  5  6  2  0
  6  7  1  0
  7  8  1  0
  8  9  2  0
  9 10  1  0
 10 11  1  0
 11 12  1  0
 12 13  2  0
 13 14  1  0
 14 15  2  0
 15 16  1  0
 16 17  2  0
 17 18  1  0
 18 19  1  0
 19 20  2  0
 20 21  1  0
 21 22  2  0
 22 23  1  0
 23 24  2  0
 18 25  2  0
 25 26  1  0
  6 27  1  0
 27  2  2  0
 26 11  2  0
 25 14  1  0
 24 19  1  0
  1 28  1  0
  1 29  1  0
  1 30  1  0
  3 31  1  0
  4 32  1  0
  5 33  1  0
  7 34  1  0
  7 35  1  0
 10 36  1  0
 12 37  1  0
 13 38  1  0
 16 39  1  0
 20 40  1  0
 21 41  1  0
 22 42  1  0
 23 43  1  0
 24 44  1  0
 26 45  1  0
 27 46  1  0
M  END
$$$$
