
     RDKit          3D

 28 29  0  0  0  0  0  0  0  0999 V2000
   -3.9266    1.0488    1.2759 C   0  0  0  0  0  0  0  0  0  0  0  0
   -3.0111    0.2089    0.4350 C   0  0  0  0  0  0  0  0  0  0  0  0
   -3.5333   -0.7026   -0.4871 C   0  0  0  0  0  0  0  0  0  0  0  0
   -2.6801   -1.5049   -1.2419 C   0  0  0  0  0  0  0  0  0  0  0  0
   -1.2973   -1.4098   -1.0732 C   0  0  0  0  0  0  0  0  0  0  0  0
   -0.7422   -0.5146   -0.1452 C   0  0  0  0  0  0  0  0  0  0  0  0
    0.7160   -0.4178    0.0358 C   0  0  0  0  0  0  0  0  0  0  0  0
    1.4886   -1.5605    0.3024 C   0  0  0  0  0  0  0  0  0  0  0  0
    2.8739   -1.4758    0.4731 C   0  0  0  0  0  0  0  0  0  0  0  0
    3.5195   -0.2455    0.3808 C   0  0  0  0  0  0  0  0  0  0  0  0
    4.8745   -0.2839    0.5643 O   0  0  0  0  0  0  0  0  0  0  0  0
    2.7684    0.9061    0.1178 C   0  0  0  0  0  0  0  0  0  0  0  0
    3.4104    2.2184    0.0173 N   0  0  0  0  0  0  0  0  0  0  0  0
    2.6909    3.2097   -0.1665 O   0  0  0  0  0  0  0  0  0  0  0  0
    4.6469    2.2599    0.1267 O   0  0  0  0  0  0  0  0  0  0  0  0
    1.3752    0.8201   -0.0543 C   0  0  0  0  0  0  0  0  0  0  0  0
   -1.6205    0.2861    0.6067 C   0  0  0  0  0  0  0  0  0  0  0  0
   -3.4629    2.0119    1.5142 H   0  0  0  0  0  0  0  0  0  0  0  0
   -4.8606    1.2613    0.7451 H   0  0  0  0  0  0  0  0  0  0  0  0
   -4.1608    0.5274    2.2090 H   0  0  0  0  0  0  0  0  0  0  0  0
   -4.6087   -0.7923   -0.6239 H   0  0  0  0  0  0  0  0  0  0  0  0
   -3.0915   -2.2060   -1.9636 H   0  0  0  0  0  0  0  0  0  0  0  0
   -0.6517   -2.0394   -1.6824 H   0  0  0  0  0  0  0  0  0  0  0  0
    1.0099   -2.5350    0.3917 H   0  0  0  0  0  0  0  0  0  0  0  0
    3.4488   -2.3756    0.6815 H   0  0  0  0  0  0  0  0  0  0  0  0
    5.2514    0.6158    0.4638 H   0  0  0  0  0  0  0  0  0  0  0  0
    0.7910    1.7137   -0.2726 H   0  0  0  0  0  0  0  0  0  0  0  0
   -1.2183    0.9757    1.3474 H   0  0  0  0  0  0  0  0  0  0  0  0
  1  2  1  0
  2  3  2  0
  3  4  1  0
  4  5  2  0
  5  6  1  0
  6  7  1  0
  7  8  1  0
  8  9  2  0
  9 10  1  0
 10 11  1  0
 10 12  2  0
 12 13  1  0
 13 14  2  0
 13 15  1  0
 12 16  1  0
  6 17  2  0
 17  2  1  0
 16  7  2  0
  1 18  1  0
  1 19  1  0
  1 20  1  0
  3 21  1  0
  4 22  1  0
  5 23  1  0
  8 24  1  0
  9 25  1  0
 11 26  1  0
 16 27  1  0
 17 28  1  0
M  CHG  2  13   1  15  -1
M  END
$$$$
