
     RDKit          3D

 36 38  0  0  0  0  0  0  0  0999 V2000
    1.9545    2.7374   -1.0058 C   0  0  0  0  0  0  0  0  0  0  0  0
    1.1046    1.6042   -0.5500 C   0  0  0  0  0  0  0  0  0  0  0  0
   -0.3186    1.5664   -0.5905 C   0  0  0  0  0  0  0  0  0  0  0  0
   -0.7457    0.3442   -0.1044 C   0  0  0  0  0  0  0  0  0  0  0  0
   -2.0956   -0.1893    0.0761 C   0  0  0  0  0  0  0  0  0  0  0  0
   -2.3687   -1.5541   -0.1164 C   0  0  0  0  0  0  0  0  0  0  0  0
   -3.6635   -2.0657    0.0485 C   0  0  0  0  0  0  0  0  0  0  0  0
   -4.7039   -1.2152    0.4124 C   0  0  0  0  0  0  0  0  0  0  0  0
   -5.9693   -1.7042    0.5453 O   0  0  0  0  0  0  0  0  0  0  0  0
   -4.4319    0.1374    0.6090 C   0  0  0  0  0  0  0  0  0  0  0  0
   -5.4881    1.0441    1.0037 N   0  0  0  0  0  0  0  0  0  0  0  0
   -5.7546    1.9671    0.2202 O   0  0  0  0  0  0  0  0  0  0  0  0
   -6.0053    0.8703    2.1158 O   0  0  0  0  0  0  0  0  0  0  0  0
   -3.1450    0.6624    0.4377 C   0  0  0  0  0  0  0  0  0  0  0  0
    0.3929   -0.3478    0.2405 N   0  0  0  0  0  0  0  0  0  0  0  0
    1.5248    0.3923   -0.0202 C   0  0  0  0  0  0  0  0  0  0  0  0
    2.8620   -0.1187    0.2738 C   0  0  0  0  0  0  0  0  0  0  0  0
    3.7492    0.6273    1.0606 C   0  0  0  0  0  0  0  0  0  0  0  0
    5.0259    0.1397    1.3503 C   0  0  0  0  0  0  0  0  0  0  0  0
    5.4262   -1.1000    0.8542 C   0  0  0  0  0  0  0  0  0  0  0  0
    4.5477   -1.8448    0.0700 C   0  0  0  0  0  0  0  0  0  0  0  0
    5.0406   -3.3753   -0.5442 Cl  0  0  0  0  0  0  0  0  0  0  0  0
    3.2715   -1.3626   -0.2218 C   0  0  0  0  0  0  0  0  0  0  0  0
    1.3921    3.4106   -1.6609 H   0  0  0  0  0  0  0  0  0  0  0  0
    2.8223    2.3756   -1.5665 H   0  0  0  0  0  0  0  0  0  0  0  0
    2.3090    3.3166   -0.1475 H   0  0  0  0  0  0  0  0  0  0  0  0
   -0.9634    2.3569   -0.9555 H   0  0  0  0  0  0  0  0  0  0  0  0
   -1.5787   -2.2359   -0.4255 H   0  0  0  0  0  0  0  0  0  0  0  0
   -3.8363   -3.1244   -0.1250 H   0  0  0  0  0  0  0  0  0  0  0  0
   -5.9691   -2.6687    0.4222 H   0  0  0  0  0  0  0  0  0  0  0  0
   -2.9649    1.7233    0.5985 H   0  0  0  0  0  0  0  0  0  0  0  0
    0.4023   -1.2617    0.6706 H   0  0  0  0  0  0  0  0  0  0  0  0
    3.4460    1.5918    1.4629 H   0  0  0  0  0  0  0  0  0  0  0  0
    5.7050    0.7267    1.9636 H   0  0  0  0  0  0  0  0  0  0  0  0
    6.4199   -1.4774    1.0802 H   0  0  0  0  0  0  0  0  0  0  0  0
    2.6062   -1.9485   -0.8503 H   0  0  0  0  0  0  0  0  0  0  0  0
  1  2  1  0
  2  3  1  0
  3  4  2  0
  4  5  1  0
  5  6  1  0
  6  7  2  0
  7  8  1  0
  8  9  1  0
  8 10  2  0
 10 11  1  0
 11 12  2  0
 11 13  1  0
 10 14  1  0
  4 15  1  0
 15 16  1  0
 16 17  1  0
 17 18  2  0
 18 19  1  0
 19 20  2  0
 20 21  1  0
 21 22  1  0
 21 23  2  0
 16  2  2  0
 23 17  1  0
 14  5  2  0
  1 24  1  0
  1 25  1  0
  1 26  1  0
  3 27  1  0
  6 28  1  0
  7 29  1  0
  9 30  1  0
 14 31  1  0
 15 32  1  0
 18 33  1  0
 19 34  1  0
 20 35  1  0
 23 36  1  0
M  CHG  2  11   1  13  -1
M  END
$$$$
