
     RDKit          3D

 58 62  0  0  0  0  0  0  0  0999 V2000
   -1.9189    1.4946    1.8158 C   0  0  0  0  0  0  0  0  0  0  0  0
   -2.9862    1.4620    0.8105 N   0  0  0  0  0  0  0  0  0  0  0  0
   -2.5963    1.9364   -0.5351 C   0  0  0  0  0  0  0  0  0  0  0  0
   -1.6960    0.9478   -1.2896 C   0  0  0  0  0  0  0  0  0  0  0  0
   -0.2989    1.1083   -0.8441 N   0  0  0  0  0  0  0  0  0  0  0  0
    0.3206    0.0296   -0.8631 N   0  0  0  0  0  0  0  0  0  0  0  0
    1.5621    0.3137   -0.4321 N   0  0  0  0  0  0  0  0  0  0  0  0
    2.5873   -0.6249   -0.6333 C   0  0  0  0  0  0  0  0  0  0  0  0
    2.3348   -1.9622   -0.9355 C   0  0  0  0  0  0  0  0  0  0  0  0
    3.3854   -2.8776   -1.0684 C   0  0  0  0  0  0  0  0  0  0  0  0
    4.7086   -2.5090   -0.8811 C   0  0  0  0  0  0  0  0  0  0  0  0
    5.6577   -3.4379   -1.0368 N   0  0  0  0  0  0  0  0  0  0  0  0
    6.9231   -3.0487   -0.8518 C   0  0  0  0  0  0  0  0  0  0  0  0
    7.3269   -1.8210   -0.5180 N   0  0  0  0  0  0  0  0  0  0  0  0
    6.3532   -0.8989   -0.3468 C   0  0  0  0  0  0  0  0  0  0  0  0
    6.8662    0.4222    0.0506 C   0  0  0  0  0  0  0  0  0  0  0  0
    7.6934    1.1553   -0.8178 C   0  0  0  0  0  0  0  0  0  0  0  0
    8.1972    2.4058   -0.4508 C   0  0  0  0  0  0  0  0  0  0  0  0
    7.8816    2.9422    0.7957 C   0  0  0  0  0  0  0  0  0  0  0  0
    7.0752    2.2199    1.6726 C   0  0  0  0  0  0  0  0  0  0  0  0
    6.6967    2.8752    3.2189 Cl  0  0  0  0  0  0  0  0  0  0  0  0
    6.5728    0.9693    1.3110 C   0  0  0  0  0  0  0  0  0  0  0  0
    4.9881   -1.1819   -0.5343 C   0  0  0  0  0  0  0  0  0  0  0  0
    3.9178   -0.2521   -0.4120 C   0  0  0  0  0  0  0  0  0  0  0  0
   -3.9450    0.4964    0.9383 C   0  0  0  0  0  0  0  0  0  0  0  0
   -4.0418   -0.6092    1.7557 C   0  0  0  0  0  0  0  0  0  0  0  0
   -5.2673   -1.2561    1.4658 C   0  0  0  0  0  0  0  0  0  0  0  0
   -5.9374   -0.5122    0.5086 C   0  0  0  0  0  0  0  0  0  0  0  0
   -7.2392   -0.7418   -0.1155 C   0  0  0  0  0  0  0  0  0  0  0  0
   -7.9466    0.2472   -0.7902 C   0  0  0  0  0  0  0  0  0  0  0  0
   -9.1813   -0.0755   -1.3501 C   0  0  0  0  0  0  0  0  0  0  0  0
   -9.6713   -1.3682   -1.2205 C   0  0  0  0  0  0  0  0  0  0  0  0
   -8.9049   -2.2882   -0.5294 C   0  0  0  0  0  0  0  0  0  0  0  0
   -7.7072   -2.0038    0.0238 N   0  0  0  0  0  0  0  0  0  0  0  0
   -5.1113    0.5508    0.2130 N   0  0  0  0  0  0  0  0  0  0  0  0
   -1.2983    2.3894    1.6958 H   0  0  0  0  0  0  0  0  0  0  0  0
   -2.3419    1.5359    2.8267 H   0  0  0  0  0  0  0  0  0  0  0  0
   -1.2740    0.6115    1.7424 H   0  0  0  0  0  0  0  0  0  0  0  0
   -3.4921    2.1278   -1.1361 H   0  0  0  0  0  0  0  0  0  0  0  0
   -2.0957    2.9081   -0.4422 H   0  0  0  0  0  0  0  0  0  0  0  0
   -1.7315    1.1820   -2.3598 H   0  0  0  0  0  0  0  0  0  0  0  0
   -2.0500   -0.0830   -1.1624 H   0  0  0  0  0  0  0  0  0  0  0  0
    1.8262    1.2898   -0.4997 H   0  0  0  0  0  0  0  0  0  0  0  0
    1.3153   -2.3147   -1.0766 H   0  0  0  0  0  0  0  0  0  0  0  0
    3.1562   -3.9106   -1.3215 H   0  0  0  0  0  0  0  0  0  0  0  0
    7.6930   -3.8018   -0.9840 H   0  0  0  0  0  0  0  0  0  0  0  0
    7.9556    0.7411   -1.7910 H   0  0  0  0  0  0  0  0  0  0  0  0
    8.8404    2.9546   -1.1346 H   0  0  0  0  0  0  0  0  0  0  0  0
    8.2767    3.9129    1.0827 H   0  0  0  0  0  0  0  0  0  0  0  0
    5.9633    0.4096    2.0185 H   0  0  0  0  0  0  0  0  0  0  0  0
    4.1320    0.7806   -0.1470 H   0  0  0  0  0  0  0  0  0  0  0  0
   -3.2997   -0.9401    2.4691 H   0  0  0  0  0  0  0  0  0  0  0  0
   -5.6411   -2.1672    1.9156 H   0  0  0  0  0  0  0  0  0  0  0  0
   -7.5722    1.2591   -0.8738 H   0  0  0  0  0  0  0  0  0  0  0  0
   -9.7562    0.6776   -1.8790 H   0  0  0  0  0  0  0  0  0  0  0  0
  -10.6272   -1.6524   -1.6447 H   0  0  0  0  0  0  0  0  0  0  0  0
   -9.2429   -3.3115   -0.3966 H   0  0  0  0  0  0  0  0  0  0  0  0
   -5.3353    1.2942   -0.4276 H   0  0  0  0  0  0  0  0  0  0  0  0
  1  2  1  0
  2  3  1  0
  3  4  1  0
  4  5  1  0
  5  6  2  0
  6  7  1  0
  7  8  1  0
  8  9  1  0
  9 10  2  0
 10 11  1  0
 11 12  2  0
 12 13  1  0
 13 14  2  0
 14 15  1  0
 15 16  1  0
 16 17  2  0
 17 18  1  0
 18 19  2  0
 19 20  1  0
 20 21  1  0
 20 22  2  0
 15 23  2  0
 23 24  1  0
  2 25  1  0
 25 26  2  0
 26 27  1  0
 27 28  2  0
 28 29  1  0
 29 30  2  0
 30 31  1  0
 31 32  2  0
 32 33  1  0
 33 34  2  0
 28 35  1  0
 24  8  2  0
 35 25  1  0
 23 11  1  0
 34 29  1  0
 22 16  1  0
  1 36  1  0
  1 37  1  0
  1 38  1  0
  3 39  1  0
  3 40  1  0
  4 41  1  0
  4 42  1  0
  7 43  1  0
  9 44  1  0
 10 45  1  0
 13 46  1  0
 17 47  1  0
 18 48  1  0
 19 49  1  0
 22 50  1  0
 24 51  1  0
 26 52  1  0
 27 53  1  0
 30 54  1  0
 31 55  1  0
 32 56  1  0
 33 57  1  0
 35 58  1  0
M  END
$$$$
